1a50_ligand
  -I-interpret- 

 30 31  0  0  0  0  0  0  0  0999 V2000
   49.7220   27.4730   14.9290 C   0  0  0  0  0
   50.2740   26.1560   14.8240 C   0  0  0  0  0
   51.6700   26.2730   14.9920 C   0  0  0  0  0
   49.7210   24.8860   14.6110 C   0  0  0  0  0
   50.7710   28.3140   15.1330 C   0  0  0  0  0
   51.9490   27.5990   15.1840 N   0  0  0  0  0
   52.5230   25.1710   14.9480 C   0  0  0  0  0
   50.5670   23.7870   14.5810 C   0  0  0  0  0
   51.9560   23.9400   14.7480 C   0  0  0  0  0
   50.0480   22.5650   14.4030 F   0  0  0  0  0
   48.2850   27.8430   14.8110 C   0  0  0  0  0
   47.8320   27.6530   13.3730 C   0  0  0  0  0
   48.4220   28.7450   12.4910 C   0  0  0  0  0
   48.3710   29.6250    9.9940 P   0  0  0  0  0
   49.5210   30.4410   10.4790 O   0  0  0  0  0
   47.1010   30.4380    9.9660 O   0  0  0  0  0
   48.5940   28.7240    8.8500 O   0  0  0  0  0
   48.0430   28.5310   11.1480 O   0  0  0  0  0
   48.6468   24.7641   14.4716 H   0  0  0  0  0
   50.6921   29.3958   15.2405 H   0  0  0  0  0
   53.6004   25.2846   15.0682 H   0  0  0  0  0
   52.5959   23.0581   14.7175 H   0  0  0  0  0
   48.1525   28.8856   15.0999 H   0  0  0  0  0
   47.6902   27.2076   15.4672 H   0  0  0  0  0
   46.7442   27.7069   13.3302 H   0  0  0  0  0
   48.1725   26.6811   13.0157 H   0  0  0  0  0
   49.5091   28.7219   12.5670 H   0  0  0  0  0
   48.0499   29.7151   12.8205 H   0  0  0  0  0
   49.2392   30.9789   11.2226 H   0  0  0  0  0
   47.0561   30.9865   10.7526 H   0  0  0  0  0
  1  2  4  0  0  0
  1  5  4  0  0  0
 11  1  1  0  0  0
  2  3  4  0  0  0
  2  4  4  0  0  0
  6  3  4  0  0  0
  3  7  4  0  0  0
  4  8  4  0  0  0
  5  6  4  0  0  0
  7  9  4  0  0  0
  8  9  4  0  0  0
  8 10  1  0  0  0
 12 11  1  0  0  0
 13 12  1  0  0  0
 18 13  1  0  0  0
 14 15  1  0  0  0
 14 16  1  0  0  0
 14 17  2  0  0  0
 14 18  1  0  0  0
  4 19  1  0  0  0
  5 20  1  0  0  0
  7 21  1  0  0  0
  9 22  1  0  0  0
 11 23  1  0  0  0
 11 24  1  0  0  0
 12 25  1  0  0  0
 12 26  1  0  0  0
 13 27  1  0  0  0
 13 28  1  0  0  0
 15 29  1  0  0  0
 16 30  1  0  0  0
M  END
$$$$
