1a7x_ligand
  -I-interpret- 

143147  0  0  0  0  0  0  0  0999 V2000
   14.4790   12.4140   26.5780 O   0  0  0  0  0
   15.5500   12.9690   27.1310 C   0  0  0  0  0
   15.5660   14.1610   27.4680 O   0  0  0  0  0
   16.7630   12.0800   27.3200 C   0  0  0  0  0
   17.8950   12.5640   26.4520 C   0  0  0  0  0
   17.7930   12.1590   24.9860 C   0  0  0  0  0
   17.5540   10.6810   24.8570 C   0  0  0  0  0
   16.2450   10.4500   25.5410 C   0  0  0  0  0
   16.5030   10.6880   26.9490 N   0  0  0  0  0
   16.3400    9.7360   27.8560 C   0  0  0  0  0
   16.3970   10.0780   29.0410 O   0  0  0  0  0
   16.1180    8.3890   27.4840 C   0  0  0  0  0
   17.0580    7.6350   27.2190 O   0  0  0  0  0
   14.7210    7.8020   27.3730 C   0  0  0  0  0
   13.6920    8.4830   28.2900 C   0  0  0  0  0
   12.3080    8.1880   27.7500 C   0  0  0  0  0
   12.1190    8.3720   26.2480 C   0  0  0  0  0
   13.1900    7.5410   25.5020 C   0  0  0  0  0
   14.4530    8.0180   25.9850 O   0  0  0  0  0
   14.7060    6.4190   27.6800 O   0  0  0  0  0
   13.8000    8.0040   29.7300 C   0  0  0  0  0
   10.7670    8.0360   25.8810 O   0  0  0  0  0
    9.8340    9.0720   26.2790 C   0  0  0  0  0
   13.2490    7.7120   23.9680 C   0  0  0  0  0
   12.2280    6.9500   23.3150 O   0  0  0  0  0
   12.6050    5.5710   23.1520 C   0  0  0  0  0
   13.1630    9.1950   23.5750 C   0  0  0  0  0
   13.3440    9.5530   22.0850 C   0  0  0  0  0
   14.5330    8.7940   21.5080 C   0  0  0  0  0
   12.0300    9.2440   21.3170 C   0  0  0  0  0
   10.9730   10.3460   21.4990 C   0  0  0  0  0
   11.0710   11.4750   20.4690 C   0  0  0  0  0
   10.0810   10.3010   22.4780 C   0  0  0  0  0
    9.1210   11.4180   22.7880 C   0  0  0  0  0
    7.7640   10.8880   23.1690 C   0  0  0  0  0
    9.6800   12.1690   23.9720 C   0  0  0  0  0
    9.4270   11.8560   25.1390 O   0  0  0  0  0
   10.5910   13.3210   23.6160 C   0  0  0  0  0
   11.4720   13.7780   24.7540 C   0  0  0  0  0
   11.9730   15.0220   24.2980 O   0  0  0  0  0
   12.7060   12.8540   25.0370 C   0  0  0  0  0
   13.7630   12.8820   23.9360 C   0  0  0  0  0
   13.4310   13.3460   26.2870 C   0  0  0  0  0
   12.5290   13.3860   27.4940 C   0  0  0  0  0
   11.9390   12.0770   28.0180 C   0  0  0  0  0
   12.3010   14.5500   28.0330 C   0  0  0  0  0
   11.4060   14.6920   29.2330 C   0  0  0  0  0
   12.1130   15.5140   30.2940 C   0  0  0  0  0
   11.2430   15.8180   31.4740 C   0  0  0  0  0
   10.0160   16.5730   30.9860 C   0  0  0  0  0
    9.2710   15.7790   29.9390 C   0  0  0  0  0
   10.1500   15.4040   28.7720 C   0  0  0  0  0
   11.8580   16.5510   32.5350 O   0  0  0  0  0
   12.6490   15.7470   33.4300 C   0  0  0  0  0
    9.1510   16.7890   32.0970 O   0  0  0  0  0
    6.9040   10.5090   21.9490 C   0  0  0  0  0
    5.6960   10.1800   22.3990 O   0  0  0  0  0
    4.7880   11.0610   22.0650 C   0  0  0  0  0
    5.0660   12.1420   21.5470 O   0  0  0  0  0
    3.5520   10.6610   22.3750 N   0  0  0  0  0
    2.4600   11.4810   21.9030 C   0  0  0  0  0
    1.1660   11.4970   22.5590 C   0  0  0  0  0
    1.2050   11.4910   23.9430 C   0  0  0  0  0
    0.0350   11.4920   24.6710 C   0  0  0  0  0
   -1.1810   11.4900   24.0270 C   0  0  0  0  0
   -1.2180   11.4980   22.6480 C   0  0  0  0  0
   -0.0500   11.4960   21.9060 C   0  0  0  0  0
   17.0144   12.1278   28.3795 H   0  0  0  0  0
   18.8081   12.1144   26.8422 H   0  0  0  0  0
   17.8739   13.6534   26.4820 H   0  0  0  0  0
   18.7288   12.4090   24.4860 H   0  0  0  0  0
   16.9577   12.6914   24.5312 H   0  0  0  0  0
   18.3574   10.0974   25.3064 H   0  0  0  0  0
   17.5317   10.3610   23.8153 H   0  0  0  0  0
   15.8729    9.4406   25.3658 H   0  0  0  0  0
   15.4689   11.1122   25.1573 H   0  0  0  0  0
   13.8873    9.5553   28.2973 H   0  0  0  0  0
   11.6355    8.8982   28.2310 H   0  0  0  0  0
   12.1196    7.1340   27.9540 H   0  0  0  0  0
   12.2620    9.4130   25.9582 H   0  0  0  0  0
   12.9479    6.4946   25.6879 H   0  0  0  0  0
   13.8099    6.0842   27.5995 H   0  0  0  0  0
   13.6284    6.9282   29.7676 H   0  0  0  0  0
   14.7959    8.2280   30.1123 H   0  0  0  0  0
   13.0528    8.5138   30.3382 H   0  0  0  0  0
    9.8761    9.2011   27.3605 H   0  0  0  0  0
   10.1020   10.0082   25.7893 H   0  0  0  0  0
    8.8249    8.7828   25.9853 H   0  0  0  0  0
   14.2122    7.3277   23.6325 H   0  0  0  0  0
   13.5117    5.5123   22.5500 H   0  0  0  0  0
   12.7879    5.1275   24.1308 H   0  0  0  0  0
   11.8000    5.0322   22.6522 H   0  0  0  0  0
   13.9875    9.6831   24.0948 H   0  0  0  0  0
   12.1497    9.5060   23.8290 H   0  0  0  0  0
   13.5539   10.6173   21.9790 H   0  0  0  0  0
   15.4358    9.0654   22.0552 H   0  0  0  0  0
   14.3583    7.7222   21.6015 H   0  0  0  0  0
   14.6523    9.0535   20.4561 H   0  0  0  0  0
   11.6195    8.3141   21.7106 H   0  0  0  0  0
   12.2674    9.1759   20.2554 H   0  0  0  0  0
   10.1342   11.5427   19.9158 H   0  0  0  0  0
   11.2604   12.4178   20.9822 H   0  0  0  0  0
   11.8878   11.2652   19.7785 H   0  0  0  0  0
   10.0402    9.4030   23.0945 H   0  0  0  0  0
    9.0076   12.0500   21.9072 H   0  0  0  0  0
    7.2408   11.6739   23.7138 H   0  0  0  0  0
    7.9137    9.9868   23.7635 H   0  0  0  0  0
    9.9563   14.1627   23.3390 H   0  0  0  0  0
   11.2468   12.9803   22.8148 H   0  0  0  0  0
   10.8957   13.7924   25.6791 H   0  0  0  0  0
   12.5531   15.3961   24.9652 H   0  0  0  0  0
   12.2951   11.8484   25.1267 H   0  0  0  0  0
   13.3178   12.5497   22.9982 H   0  0  0  0  0
   14.1392   13.8986   23.8210 H   0  0  0  0  0
   14.5841   12.2177   24.2054 H   0  0  0  0  0
   13.7950   14.3543   26.0899 H   0  0  0  0  0
   12.2659   11.9183   29.0456 H   0  0  0  0  0
   10.8509   12.1318   27.9859 H   0  0  0  0  0
   12.2810   11.2507   27.3949 H   0  0  0  0  0
   12.7678   15.4376   27.6061 H   0  0  0  0  0
   11.1595   13.7198   29.6599 H   0  0  0  0  0
   12.4023   16.4625   29.8414 H   0  0  0  0  0
   12.9651   14.9349   30.6499 H   0  0  0  0  0
   10.9974   14.8511   31.9132 H   0  0  0  0  0
   10.3346   17.5170   30.5439 H   0  0  0  0  0
    8.4553   16.3966   29.5632 H   0  0  0  0  0
    8.9139   14.8594   30.4026 H   0  0  0  0  0
    9.5915   14.7333   28.1191 H   0  0  0  0  0
   10.4404   16.3158   28.2501 H   0  0  0  0  0
   12.0160   14.9886   33.8907 H   0  0  0  0  0
   13.4493   15.2630   32.8703 H   0  0  0  0  0
   13.0784   16.3829   34.2042 H   0  0  0  0  0
    8.3702   17.2653   31.8053 H   0  0  0  0  0
    7.3517    9.6730   21.4115 H   0  0  0  0  0
    6.8374   11.3463   21.2543 H   0  0  0  0  0
    3.3865    9.8150   22.9202 H   0  0  0  0  0
    2.2408   11.0706   20.9173 H   0  0  0  0  0
    2.8275   12.4980   22.0398 H   0  0  0  0  0
    2.1652   11.4855   24.4589 H   0  0  0  0  0
    0.0729   11.4944   25.7603 H   0  0  0  0  0
   -2.1072   11.4822   24.6016 H   0  0  0  0  0
   -2.1802   11.5060   22.1360 H   0  0  0  0  0
   -0.0899   11.4937   20.8167 H   0  0  0  0  0
  1  2  1  0  0  0
  1 43  1  0  0  0
  2  3  2  0  0  0
  2  4  1  0  0  0
  4  5  1  0  0  0
  4  9  1  0  0  0
  5  6  1  0  0  0
  6  7  1  0  0  0
  7  8  1  0  0  0
  8  9  1  0  0  0
  9 10  1  0  0  0
 10 11  2  0  0  0
 10 12  2  0  0  0
 12 13  2  0  0  0
 12 14  1  0  0  0
 14 15  1  0  0  0
 14 19  1  0  0  0
 14 20  1  0  0  0
 15 16  1  0  0  0
 15 21  1  0  0  0
 16 17  1  0  0  0
 17 18  1  0  0  0
 17 22  1  0  0  0
 18 19  1  0  0  0
 18 24  1  0  0  0
 22 23  1  0  0  0
 24 25  1  0  0  0
 24 27  1  0  0  0
 25 26  1  0  0  0
 27 28  1  0  0  0
 28 29  1  0  0  0
 28 30  1  0  0  0
 30 31  1  0  0  0
 31 32  1  0  0  0
 31 33  2  0  0  0
 33 34  1  0  0  0
 34 35  1  0  0  0
 34 36  1  0  0  0
 35 56  1  0  0  0
 36 37  2  0  0  0
 36 38  1  0  0  0
 38 39  1  0  0  0
 39 40  1  0  0  0
 39 41  1  0  0  0
 41 42  1  0  0  0
 41 43  1  0  0  0
 43 44  1  0  0  0
 44 45  1  0  0  0
 44 46  2  0  0  0
 46 47  1  0  0  0
 47 48  1  0  0  0
 47 52  1  0  0  0
 48 49  1  0  0  0
 49 50  1  0  0  0
 49 53  1  0  0  0
 50 51  1  0  0  0
 50 55  1  0  0  0
 51 52  1  0  0  0
 53 54  1  0  0  0
 56 57  1  0  0  0
 57 58  1  0  0  0
 58 59  2  0  0  0
 58 60  1  0  0  0
 60 61  1  0  0  0
 61 62  1  0  0  0
 62 63  4  0  0  0
 62 67  4  0  0  0
 63 64  4  0  0  0
 64 65  4  0  0  0
 65 66  4  0  0  0
 66 67  4  0  0  0
  4 68  1  0  0  0
  5 69  1  0  0  0
  5 70  1  0  0  0
  6 71  1  0  0  0
  6 72  1  0  0  0
  7 73  1  0  0  0
  7 74  1  0  0  0
  8 75  1  0  0  0
  8 76  1  0  0  0
 15 77  1  0  0  0
 16 78  1  0  0  0
 16 79  1  0  0  0
 17 80  1  0  0  0
 18 81  1  0  0  0
 20 82  1  0  0  0
 21 83  1  0  0  0
 21 84  1  0  0  0
 21 85  1  0  0  0
 23 86  1  0  0  0
 23 87  1  0  0  0
 23 88  1  0  0  0
 24 89  1  0  0  0
 26 90  1  0  0  0
 26 91  1  0  0  0
 26 92  1  0  0  0
 27 93  1  0  0  0
 27 94  1  0  0  0
 28 95  1  0  0  0
 29 96  1  0  0  0
 29 97  1  0  0  0
 29 98  1  0  0  0
 30 99  1  0  0  0
 30100  1  0  0  0
 32101  1  0  0  0
 32102  1  0  0  0
 32103  1  0  0  0
 33104  1  0  0  0
 34105  1  0  0  0
 35106  1  0  0  0
 35107  1  0  0  0
 38108  1  0  0  0
 38109  1  0  0  0
 39110  1  0  0  0
 40111  1  0  0  0
 41112  1  0  0  0
 42113  1  0  0  0
 42114  1  0  0  0
 42115  1  0  0  0
 43116  1  0  0  0
 45117  1  0  0  0
 45118  1  0  0  0
 45119  1  0  0  0
 46120  1  0  0  0
 47121  1  0  0  0
 48122  1  0  0  0
 48123  1  0  0  0
 49124  1  0  0  0
 50125  1  0  0  0
 51126  1  0  0  0
 51127  1  0  0  0
 52128  1  0  0  0
 52129  1  0  0  0
 54130  1  0  0  0
 54131  1  0  0  0
 54132  1  0  0  0
 55133  1  0  0  0
 56134  1  0  0  0
 56135  1  0  0  0
 60136  1  0  0  0
 61137  1  0  0  0
 61138  1  0  0  0
 63139  1  0  0  0
 64140  1  0  0  0
 65141  1  0  0  0
 66142  1  0  0  0
 67143  1  0  0  0
M  END
$$$$
