1gvw_ligand
  -I-interpret- 

 96 97  0  0  0  0  0  0  0  0999 V2000
    1.5530   27.3940   20.2800 O   0  0  0  0  0
    2.3520   26.5920   19.7950 C   0  0  0  0  0
    2.1280   25.1820   19.8390 O   0  0  0  0  0
    1.0100   24.5180   20.4580 C   0  0  0  0  0
    0.9900   24.7250   21.9700 C   0  0  0  0  0
    1.2510   23.0180   20.2280 C   0  0  0  0  0
   -0.2510   24.9630   19.7170 C   0  0  0  0  0
    3.5200   26.8240   19.1780 N   0  0  0  0  0
    3.9840   28.2080   18.8460 C   0  0  0  0  0
    3.1090   28.7590   17.6920 C   0  0  0  0  0
    2.8090   27.9390   16.7710 O   0  0  0  0  0
    5.4640   28.2240   18.5110 C   0  0  0  0  0
    6.5420   28.0500   19.5410 C   0  0  0  0  0
    6.6930   26.8970   20.3010 C   0  0  0  0  0
    7.4930   29.0520   19.7780 C   0  0  0  0  0
    7.6800   26.7200   21.2360 C   0  0  0  0  0
    8.4650   28.8950   20.7450 C   0  0  0  0  0
    8.5790   27.7350   21.4930 C   0  0  0  0  0
    2.7830   30.0750   17.7310 N   0  0  0  0  0
    2.1250   30.7490   16.5920 C   0  0  0  0  0
    2.8970   32.0560   16.3470 C   0  0  0  0  0
    2.4620   33.0960   16.8710 O   0  0  0  0  0
    0.6450   31.0910   16.7390 C   0  0  0  0  0
   -0.0190   31.7110   15.5380 C   0  0  0  0  0
   -1.3170   32.2810   15.5690 N   0  0  0  0  0
    0.3820   31.8430   14.2450 C   0  0  0  0  0
   -1.6400   32.7380   14.3650 C   0  0  0  0  0
   -0.6090   32.4860   13.5360 N   0  0  0  0  0
    3.9680   32.0010   15.5460 N   0  0  0  0  0
    4.8820   33.0780   15.2090 C   0  0  0  0  0
    6.3350   32.9230   15.7760 C   0  0  0  0  0
    6.4840   32.5500   17.2740 C   0  0  0  0  0
    7.9850   32.3040   17.5850 C   0  0  0  0  0
    5.8460   33.5500   18.2210 C   0  0  0  0  0
    4.8910   33.4070   13.4150 P   0  0  0  0  0
    5.1300   32.1100   12.7550 O   0  0  0  0  0
    5.9260   34.4770   13.0940 O   0  0  0  0  0
    3.3150   34.1150   12.9120 C   0  0  0  0  0
    3.1360   35.5610   13.3240 C   0  0  0  0  0
    2.6010   35.7980   14.4070 O   0  0  0  0  0
    3.5830   36.5370   12.4910 N   0  0  0  0  0
    3.6210   37.9040   12.9790 C   0  0  0  0  0
    3.7910   38.9920   11.9560 C   0  0  0  0  0
    3.9970   40.3750   12.5990 C   0  0  0  0  0
    2.5770   38.9860   11.0550 C   0  0  0  0  0
    4.7160   41.2880   11.6660 C   0  0  0  0  0
    0.8616   25.7851   22.1886 H   0  0  0  0  0
    0.1632   24.1609   22.4017 H   0  0  0  0  0
    1.9309   24.3763   22.3957 H   0  0  0  0  0
    0.3966   22.4528   20.6003 H   0  0  0  0  0
    1.3754   22.8306   19.1615 H   0  0  0  0  0
    2.1514   22.7103   20.7597 H   0  0  0  0  0
   -1.1082   24.4048   20.0935 H   0  0  0  0  0
   -0.4098   26.0289   19.8804 H   0  0  0  0  0
   -0.1309   24.7715   18.6507 H   0  0  0  0  0
    4.1113   26.0317   18.9268 H   0  0  0  0  0
    3.8668   28.8586   19.7126 H   0  0  0  0  0
    5.6252   29.2415   18.1550 H   0  0  0  0  0
    5.5831   27.3443   17.8785 H   0  0  0  0  0
    5.9840   26.0840   20.1445 H   0  0  0  0  0
    7.4644   29.9691   19.1896 H   0  0  0  0  0
    7.7547   25.7766   21.7769 H   0  0  0  0  0
    9.1656   29.7102   20.9259 H   0  0  0  0  0
    9.3499   27.6278   22.2561 H   0  0  0  0  0
    2.9979   30.6145   18.5696 H   0  0  0  0  0
    2.1511   30.0321   15.7713 H   0  0  0  0  0
    0.5823   31.8314   17.5365 H   0  0  0  0  0
    0.1312   30.1461   16.9158 H   0  0  0  0  0
    1.3315   31.4969   13.8367 H   0  0  0  0  0
   -2.5744   33.2301   14.0952 H   0  0  0  0  0
    4.1657   31.0947   15.1218 H   0  0  0  0  0
    4.4818   33.9511   15.7245 H   0  0  0  0  0
    6.7968   33.9047   15.6711 H   0  0  0  0  0
    6.7789   32.0956   15.2224 H   0  0  0  0  0
    5.9252   31.6308   17.4497 H   0  0  0  0  0
    8.3546   31.4885   16.9634 H   0  0  0  0  0
    8.5520   33.2103   17.3725 H   0  0  0  0  0
    8.0985   32.0411   18.6367 H   0  0  0  0  0
    6.3098   34.5266   18.0825 H   0  0  0  0  0
    4.7791   33.6197   18.0089 H   0  0  0  0  0
    5.9925   33.2193   19.2492 H   0  0  0  0  0
    5.7021   35.2868   13.5585 H   0  0  0  0  0
    2.5290   33.5382   13.3994 H   0  0  0  0  0
    3.2753   34.0797   11.8233 H   0  0  0  0  0
    3.8855   36.3140   11.5428 H   0  0  0  0  0
    4.4972   37.9643   13.6246 H   0  0  0  0  0
    2.6500   38.0809   13.4417 H   0  0  0  0  0
    4.6930   38.7951   11.3766 H   0  0  0  0  0
    4.5917   40.2573   13.5049 H   0  0  0  0  0
    3.0224   40.8044   12.8309 H   0  0  0  0  0
    2.4964   38.0169   10.5626 H   0  0  0  0  0
    1.6827   39.1676   11.6512 H   0  0  0  0  0
    2.6797   39.7692   10.3039 H   0  0  0  0  0
    5.6900   40.8634   11.4227 H   0  0  0  0  0
    4.1317   41.4066   10.7535 H   0  0  0  0  0
    4.8503   42.2594   12.1418 H   0  0  0  0  0
  2  1  2  0  0  0
  2  3  1  0  0  0
  3  4  1  0  0  0
  4  7  1  0  0  0
  4  6  1  0  0  0
  4  5  1  0  0  0
 10  9  1  0  0  0
  9 12  1  0  0  0
  9  8  1  0  0  0
 12 13  1  0  0  0
 13 15  4  0  0  0
 13 14  4  0  0  0
 14 16  4  0  0  0
 16 18  4  0  0  0
 17 18  4  0  0  0
 15 17  4  0  0  0
 10 11  2  0  0  0
 21 20  1  0  0  0
 20 23  1  0  0  0
 20 19  1  0  0  0
 23 24  1  0  0  0
 24 26  4  0  0  0
 24 25  4  0  0  0
 25 27  4  0  0  0
 27 28  4  0  0  0
 26 28  4  0  0  0
 21 22  2  0  0  0
 30 29  1  0  0  0
 35 30  1  0  0  0
 30 31  1  0  0  0
 31 32  1  0  0  0
 32 34  1  0  0  0
 32 33  1  0  0  0
 38 35  1  0  0  0
 35 37  1  0  0  0
 35 36  2  0  0  0
 39 38  1  0  0  0
 39 40  2  0  0  0
 41 42  1  0  0  0
 42 43  1  0  0  0
 43 45  1  0  0  0
 43 44  1  0  0  0
 44 46  1  0  0  0
 19 10  1  0  0  0
  8  2  1  0  0  0
 29 21  1  0  0  0
 39 41  1  0  0  0
  5 47  1  0  0  0
  5 48  1  0  0  0
  5 49  1  0  0  0
  6 50  1  0  0  0
  6 51  1  0  0  0
  6 52  1  0  0  0
  7 53  1  0  0  0
  7 54  1  0  0  0
  7 55  1  0  0  0
  8 56  1  0  0  0
  9 57  1  0  0  0
 12 58  1  0  0  0
 12 59  1  0  0  0
 14 60  1  0  0  0
 15 61  1  0  0  0
 16 62  1  0  0  0
 17 63  1  0  0  0
 18 64  1  0  0  0
 19 65  1  0  0  0
 20 66  1  0  0  0
 23 67  1  0  0  0
 23 68  1  0  0  0
 26 69  1  0  0  0
 27 70  1  0  0  0
 29 71  1  0  0  0
 30 72  1  0  0  0
 31 73  1  0  0  0
 31 74  1  0  0  0
 32 75  1  0  0  0
 33 76  1  0  0  0
 33 77  1  0  0  0
 33 78  1  0  0  0
 34 79  1  0  0  0
 34 80  1  0  0  0
 34 81  1  0  0  0
 37 82  1  0  0  0
 38 83  1  0  0  0
 38 84  1  0  0  0
 41 85  1  0  0  0
 42 86  1  0  0  0
 42 87  1  0  0  0
 43 88  1  0  0  0
 44 89  1  0  0  0
 44 90  1  0  0  0
 45 91  1  0  0  0
 45 92  1  0  0  0
 45 93  1  0  0  0
 46 94  1  0  0  0
 46 95  1  0  0  0
 46 96  1  0  0  0
M  END
$$$$
