1h07_ligand
  -I-interpret- 

 60 62  0  0  0  0  0  0  0  0999 V2000
    4.5590   26.6480    6.0840 C   0  0  0  0  0
    0.3070   32.4400    7.5680 C   0  0  0  0  0
    1.7060   30.6460    7.2870 C   0  0  0  0  0
    0.7960   29.8520    8.1150 C   0  0  0  0  0
   -0.3650   30.4620    8.6430 C   0  0  0  0  0
   -0.7830   25.6330   11.1900 C   0  0  0  0  0
   -0.2790   26.7680   11.8550 C   0  0  0  0  0
   -0.4630   28.0620   11.3120 C   0  0  0  0  0
   -1.1650   28.2670   10.0790 C   0  0  0  0  0
   -1.4830   25.8000    9.9600 C   0  0  0  0  0
   -2.6830   31.5500   10.7450 C   0  0  0  0  0
   -2.6520   30.3730    9.9560 C   0  0  0  0  0
   -1.6720   27.1080    9.4060 C   0  0  0  0  0
   -0.5780   24.2470   11.7990 C   0  0  0  0  0
    3.4440   28.6890    6.8580 C   0  0  0  0  0
   -0.5800   31.7770    8.3310 N   0  0  0  0  0
    1.4270   31.9370    7.0360 N   0  0  0  0  0
   -1.3800   29.6800    9.5130 N   0  0  0  0  0
    0.2520   29.5170   12.2970 Br  0  0  0  0  0
   -2.7220   32.5140   11.3920 N   0  0  0  0  0
    2.9400   30.0530    6.7120 N   0  0  0  0  0
    4.1430   27.9910    5.8320 C   0  0  0  0  0
    4.2610   26.0680    7.3500 C   0  0  0  0  0
    3.5830   26.7990    8.3180 C   0  0  0  0  0
    3.1920   28.0760    8.0790 C   0  0  0  0  0
    4.6160   24.7590    7.6550 O   0  0  0  0  0
    4.0940   24.0760    8.8390 C   0  0  0  0  0
    4.6110   22.6540    8.9440 C   0  0  0  0  0
    5.9180   22.4900    9.7500 C   0  0  0  0  0
    5.9410   21.3390   10.7020 N   0  3  0  0  0
    5.8350   21.7240   12.1390 C   0  0  0  0  0
    7.0640   20.3930   10.4520 C   0  0  0  0  0
    4.7280   22.0870    7.6420 O   0  0  0  0  0
    5.0934   26.0790    5.3232 H   0  0  0  0  0
    0.0928   33.4889    7.3631 H   0  0  0  0  0
    1.0110   28.8036    8.3217 H   0  0  0  0  0
    0.2575   26.6486   12.7963 H   0  0  0  0  0
   -1.8768   24.9281    9.4377 H   0  0  0  0  0
   -3.6035   29.9391    9.6486 H   0  0  0  0  0
   -2.2068   27.2224    8.4632 H   0  0  0  0  0
    0.4894   24.0484   11.8959 H   0  0  0  0  0
   -1.0464   24.2108   12.7826 H   0  0  0  0  0
   -1.0312   23.4964   11.1515 H   0  0  0  0  0
    3.5093   30.6783    6.1416 H   0  0  0  0  0
    4.3556   28.4706    4.8765 H   0  0  0  0  0
    3.3624   26.3404    9.2819 H   0  0  0  0  0
    2.6708   28.6310    8.8590 H   0  0  0  0  0
    3.0073   24.0403    8.7622 H   0  0  0  0  0
    4.4203   24.6249    9.7224 H   0  0  0  0  0
    3.8693   22.1069    9.5259 H   0  0  0  0  0
    6.0302   23.3932   10.3497 H   0  0  0  0  0
    6.7116   22.3108    9.0246 H   0  0  0  0  0
    5.0801   20.8315   10.4977 H   0  0  0  0  0
    6.6710   22.3717   12.4029 H   0  0  0  0  0
    4.8969   22.2541   12.3035 H   0  0  0  0  0
    5.8599   20.8265   12.7571 H   0  0  0  0  0
    6.9771   19.9861    9.4445 H   0  0  0  0  0
    8.0119   20.9220   10.5511 H   0  0  0  0  0
    7.0219   19.5811   11.1781 H   0  0  0  0  0
    5.0554   21.1875    7.7142 H   0  0  0  0  0
 22  1  4  0  0  0
  1 23  4  0  0  0
  2 16  4  0  0  0
 17  2  4  0  0  0
  3  4  4  0  0  0
  3 17  4  0  0  0
 21  3  1  0  0  0
  4  5  4  0  0  0
  5 16  4  0  0  0
  5 18  1  0  0  0
  7  6  4  0  0  0
 10  6  4  0  0  0
  6 14  1  0  0  0
  8  7  4  0  0  0
  9  8  4  0  0  0
  9 13  4  0  0  0
 18  9  1  0  0  0
 13 10  4  0  0  0
 12 11  2  0  0  0
 18 12  1  0  0  0
  8 19  1  0  0  0
 11 20  3  0  0  0
 24 23  4  0  0  0
 23 26  1  0  0  0
 25 24  4  0  0  0
 26 27  1  0  0  0
 27 28  1  0  0  0
 28 29  1  0  0  0
 28 33  1  0  0  0
 29 30  1  0  0  0
 30 31  1  0  0  0
 30 32  1  0  0  0
 15 25  4  0  0  0
 15 22  4  0  0  0
 15 21  1  0  0  0
  1 34  1  0  0  0
  2 35  1  0  0  0
  4 36  1  0  0  0
  7 37  1  0  0  0
 10 38  1  0  0  0
 12 39  1  0  0  0
 13 40  1  0  0  0
 14 41  1  0  0  0
 14 42  1  0  0  0
 14 43  1  0  0  0
 21 44  1  0  0  0
 22 45  1  0  0  0
 24 46  1  0  0  0
 25 47  1  0  0  0
 27 48  1  0  0  0
 27 49  1  0  0  0
 28 50  1  0  0  0
 29 51  1  0  0  0
 29 52  1  0  0  0
 30 53  1  0  0  0
 31 54  1  0  0  0
 31 55  1  0  0  0
 31 56  1  0  0  0
 32 57  1  0  0  0
 32 58  1  0  0  0
 32 59  1  0  0  0
 33 60  1  0  0  0
M  END
$$$$
