1hv5_ligand
  -I-interpret- 

 92 96  0  0  0  0  0  0  0  0999 V2000
   38.0990   63.2640    4.1400 N   0  0  0  0  0
   40.5810   61.4990    5.8530 N   0  0  0  0  0
   39.3270   61.3320    5.1100 C   0  0  0  0  0
   38.7530   59.9420    5.4070 C   0  0  0  0  0
   37.6320   59.6620    4.4600 C   0  0  0  0  0
   37.8220   58.9940    3.2690 C   0  0  0  0  0
   36.2420   60.0280    4.5990 C   0  0  0  0  0
   35.5390   59.6190    3.4760 N   0  0  0  0  0
   36.4050   58.9640    2.6220 C   0  0  0  0  0
   38.9700   58.3580    2.5680 C   0  0  0  0  0
   36.0990   58.3350    1.3240 C   0  0  0  0  0
   38.6920   57.6720    1.2570 C   0  0  0  0  0
   37.2530   57.6540    0.6280 C   0  0  0  0  0
   38.4680   62.6480    5.3000 C   0  0  0  0  0
   38.1260   62.8810    6.4490 O   0  0  0  0  0
   41.8050   62.2950    4.2750 O   0  0  0  0  0
   41.7400   61.9980    5.3950 C   0  0  0  0  0
   43.7320   63.3790    6.4140 C   0  0  0  0  0
   41.5990   65.4430    9.1570 C   0  0  0  0  0
   40.8980   64.9780   10.3310 C   0  0  0  0  0
   40.4540   65.9930   11.3050 C   0  0  0  0  0
   40.6460   67.4230   11.0950 C   0  0  0  0  0
   41.2500   67.8610    9.8620 C   0  0  0  0  0
   41.7170   66.9300    8.8070 C   0  0  0  0  0
   43.0010   62.0660    6.3240 C   0  0  0  0  0
   42.9790   64.3870    7.2150 C   0  0  0  0  0
   42.0880   64.2440    8.5010 C   0  0  0  0  0
   44.0980   61.1340    5.7600 C   0  0  0  0  0
   45.3680   60.5860    6.8470 P   0  0  0  0  0
   44.6450   60.2270    7.8740 O   0  0  0  0  0
   46.3300   61.4020    7.2750 O   0  0  0  0  0
   45.2080   58.2120    5.7730 N   0  0  0  0  0
   46.2440   59.1480    6.1830 C   0  0  0  0  0
   47.1010   58.3830    7.2150 C   0  0  0  0  0
   48.1740   57.6060    6.6520 C   0  0  0  0  0
   47.9660   56.1810    6.0740 C   0  0  0  0  0
   49.5350   58.2270    6.5930 C   0  0  0  0  0
   49.0270   55.4070    5.4420 C   0  0  0  0  0
   50.6440   57.4410    5.9600 C   0  0  0  0  0
   50.3600   56.0510    5.3950 C   0  0  0  0  0
   44.9210   57.1920    4.8090 C   0  0  0  0  0
   43.8640   56.3560    5.0690 O   0  0  0  0  0
   45.9830   57.0440    3.7690 O   0  0  0  0  0
   45.9220   55.8100    2.7960 C   0  0  0  0  0
   45.3340   54.4250    3.3390 C   0  0  0  0  0
   46.0690   53.5290    4.3640 C   0  0  0  0  0
   45.3070   52.3970    5.1070 C   0  0  0  0  0
   43.8110   52.0890    4.7740 C   0  0  0  0  0
   43.0320   52.8700    3.6730 C   0  0  0  0  0
   43.8390   54.0700    3.0080 C   0  0  0  0  0
   37.4418   64.0437    4.1633 H   0  0  0  0  0
   38.4803   62.9449    3.2494 H   0  0  0  0  0
   40.5710   61.2021    6.8288 H   0  0  0  0  0
   39.4096   61.2812    4.0243 H   0  0  0  0  0
   38.3832   59.9098    6.4319 H   0  0  0  0  0
   39.5325   59.1901    5.2843 H   0  0  0  0  0
   35.8113   60.5465    5.4556 H   0  0  0  0  0
   39.9753   58.3877    2.9882 H   0  0  0  0  0
   35.0985   58.3601    0.8922 H   0  0  0  0  0
   39.5085   57.1762    0.7321 H   0  0  0  0  0
   37.0856   57.1445   -0.3210 H   0  0  0  0  0
   43.8541   63.7700    5.4039 H   0  0  0  0  0
   44.6895   63.2020    6.9039 H   0  0  0  0  0
   40.7044   63.9174   10.4912 H   0  0  0  0  0
   39.9623   65.6603   12.2191 H   0  0  0  0  0
   40.3398   68.1440   11.8530 H   0  0  0  0  0
   41.3696   68.9317    9.6966 H   0  0  0  0  0
   42.1146   67.2774    7.8534 H   0  0  0  0  0
   42.5770   61.8209    7.2978 H   0  0  0  0  0
   42.2119   64.6603    6.4905 H   0  0  0  0  0
   43.8140   64.9495    7.6326 H   0  0  0  0  0
   41.1915   63.7233    8.1643 H   0  0  0  0  0
   42.7335   63.7651    9.2373 H   0  0  0  0  0
   44.6082   61.7215    4.9967 H   0  0  0  0  0
   43.5743   60.2290    5.4522 H   0  0  0  0  0
   46.8710   61.6752    6.5305 H   0  0  0  0  0
   44.4023   58.3204    6.3891 H   0  0  0  0  0
   46.9111   59.5062    5.3989 H   0  0  0  0  0
   46.4362   57.6836    7.7218 H   0  0  0  0  0
   47.5582   59.1308    7.8629 H   0  0  0  0  0
   46.9738   55.7353    6.1444 H   0  0  0  0  0
   49.7147   59.2226    6.9988 H   0  0  0  0  0
   48.8502   54.4140    5.0288 H   0  0  0  0  0
   51.6486   57.8600    5.9034 H   0  0  0  0  0
   51.1816   55.5039    4.9327 H   0  0  0  0  0
   46.9614   55.5962    2.5471 H   0  0  0  0  0
   45.2409   56.1123    2.0005 H   0  0  0  0  0
   47.1275   53.6928    4.5661 H   0  0  0  0  0
   45.8212   51.8111    5.8689 H   0  0  0  0  0
   43.2970   51.3041    5.3288 H   0  0  0  0  0
   42.0135   52.6143    3.3810 H   0  0  0  0  0
   43.3203   54.6868    2.2741 H   0  0  0  0  0
 14  1  1  0  0  0
  2  3  1  0  0  0
 17  2  1  0  0  0
  3  4  1  0  0  0
  3 14  1  0  0  0
  4  5  1  0  0  0
  5  6  4  0  0  0
  5  7  4  0  0  0
  6  9  4  0  0  0
  6 10  4  0  0  0
  7  8  4  0  0  0
  8  9  4  0  0  0
  9 11  4  0  0  0
 10 12  4  0  0  0
 11 13  4  0  0  0
 12 13  4  0  0  0
 14 15  2  0  0  0
 17 16  2  0  0  0
 25 17  1  0  0  0
 18 25  1  0  0  0
 26 18  1  0  0  0
 19 20  4  0  0  0
 19 24  4  0  0  0
 27 19  1  0  0  0
 20 21  4  0  0  0
 21 22  4  0  0  0
 23 22  4  0  0  0
 24 23  4  0  0  0
 25 28  1  0  0  0
 26 27  1  0  0  0
 28 29  1  0  0  0
 29 30  2  0  0  0
 29 31  1  0  0  0
 29 33  1  0  0  0
 33 32  1  0  0  0
 32 41  1  0  0  0
 33 34  1  0  0  0
 34 35  1  0  0  0
 35 36  4  0  0  0
 35 37  4  0  0  0
 36 38  4  0  0  0
 37 39  4  0  0  0
 38 40  4  0  0  0
 39 40  4  0  0  0
 41 42  2  0  0  0
 41 43  1  0  0  0
 43 44  1  0  0  0
 44 45  1  0  0  0
 45 46  4  0  0  0
 45 50  4  0  0  0
 46 47  4  0  0  0
 47 48  4  0  0  0
 48 49  4  0  0  0
 49 50  4  0  0  0
  1 51  1  0  0  0
  1 52  1  0  0  0
  2 53  1  0  0  0
  3 54  1  0  0  0
  4 55  1  0  0  0
  4 56  1  0  0  0
  7 57  1  0  0  0
 10 58  1  0  0  0
 11 59  1  0  0  0
 12 60  1  0  0  0
 13 61  1  0  0  0
 18 62  1  0  0  0
 18 63  1  0  0  0
 20 64  1  0  0  0
 21 65  1  0  0  0
 22 66  1  0  0  0
 23 67  1  0  0  0
 24 68  1  0  0  0
 25 69  1  0  0  0
 26 70  1  0  0  0
 26 71  1  0  0  0
 27 72  1  0  0  0
 27 73  1  0  0  0
 28 74  1  0  0  0
 28 75  1  0  0  0
 31 76  1  0  0  0
 32 77  1  0  0  0
 33 78  1  0  0  0
 34 79  1  0  0  0
 34 80  1  0  0  0
 36 81  1  0  0  0
 37 82  1  0  0  0
 38 83  1  0  0  0
 39 84  1  0  0  0
 40 85  1  0  0  0
 44 86  1  0  0  0
 44 87  1  0  0  0
 46 88  1  0  0  0
 47 89  1  0  0  0
 48 90  1  0  0  0
 49 91  1  0  0  0
 50 92  1  0  0  0
M  END
$$$$
