1lf8_ligand
  -I-interpret- 

135135  0  0  0  0  0  0  0  0999 V2000
   40.9480   18.0020   59.4400 N   0  3  0  0  0
   39.6150   17.4980   59.8430 C   0  0  0  0  0
   38.5530   18.5850   60.0220 C   0  0  0  0  0
   37.2580   18.0100   59.9530 O   0  0  0  0  0
   39.1960   16.2600   59.0730 C   0  0  0  0  0
   38.6130   15.3280   59.6150 O   0  0  0  0  0
   36.0470   18.8570   59.6650 P   0  0  0  0  0
   34.9210   18.4280   60.5400 O   0  0  0  0  0
   35.6540   18.6850   58.2410 O   0  0  0  0  0
   36.3600   20.2880   59.9280 O   0  0  0  0  0
   39.5640   16.2330   57.7980 N   0  0  0  0  0
   39.2320   15.1340   56.9080 C   0  0  0  0  0
   40.2410   13.9880   57.0000 C   0  0  0  0  0
   41.3270   14.1460   57.5510 O   0  0  0  0  0
   39.1630   15.6740   55.4730 C   0  0  0  0  0
   38.7480   14.6240   54.4630 C   0  0  0  0  0
   37.8610   13.8090   54.7840 O   0  0  0  0  0
   39.3030   14.6300   53.3470 O   0  0  0  0  0
   39.8530   12.8380   56.4550 N   0  0  0  0  0
   40.6790   11.6340   56.4130 C   0  0  0  0  0
   41.6830   11.7720   55.2730 C   0  0  0  0  0
   41.6810   12.7680   54.5520 O   0  0  0  0  0
   39.8060   10.4100   56.1310 C   0  0  0  0  0
   38.8970    9.9840   57.2650 C   0  0  0  0  0
   37.8420    8.9830   56.8160 C   0  0  0  0  0
   38.1490    8.1060   55.9750 O   0  0  0  0  0
   36.6990    9.0740   57.3100 O   0  0  0  0  0
   42.5370   10.7650   55.1160 N   0  0  0  0  0
   43.5280   10.7460   54.0440 C   0  0  0  0  0
   42.9340    9.9120   52.9170 C   0  0  0  0  0
   42.0740    9.0620   53.1580 O   0  0  0  0  0
   44.8310   10.0980   54.5250 C   0  0  0  0  0
   45.5650   10.9480   55.5400 C   0  0  0  0  0
   45.9070   12.1010   55.2040 O   0  0  0  0  0
   45.8040   10.4650   56.6680 O   0  0  0  0  0
   43.3910   10.1520   51.6920 N   0  0  0  0  0
   42.8860    9.4100   50.5470 C   0  0  0  0  0
   43.1190    7.9180   50.7270 C   0  0  0  0  0
   44.2380    7.4900   51.0080 O   0  0  0  0  0
   43.5660    9.8800   49.2590 C   0  0  0  0  0
   43.1610    9.1130   47.9960 C   0  0  0  0  0
   41.6540    9.1860   47.8210 C   0  0  0  0  0
   43.8730    9.6890   46.7850 C   0  0  0  0  0
   42.0580    7.1330   50.5730 N   0  0  0  0  0
   42.1510    5.6840   50.7100 C   0  0  0  0  0
   43.0990    5.1470   49.6490 C   0  0  0  0  0
   43.1720    5.6850   48.5450 O   0  0  0  0  0
   40.7800    5.0420   50.5150 C   0  0  0  0  0
   40.7190    3.5360   50.7670 C   0  0  0  0  0
   40.2310    3.2910   52.1880 C   0  0  0  0  0
   39.7860    2.8780   49.7680 C   0  0  0  0  0
   43.8230    4.0860   49.9800 N   0  0  0  0  0
   44.7540    3.4920   49.0330 C   0  0  0  0  0
   44.5050    1.9990   48.8380 C   0  0  0  0  0
   44.4460    1.2280   49.7970 O   0  0  0  0  0
   46.1950    3.7640   49.4790 C   0  0  0  0  0
   46.6300    5.1810   49.2540 C   0  0  0  0  0
   47.7890    5.7020   49.7890 N   0  0  0  0  0
   46.0620    6.1850   48.5410 C   0  0  0  0  0
   47.9160    6.9640   49.4160 C   0  0  0  0  0
   46.8810    7.2820   48.6580 N   0  0  0  0  0
   44.3440    1.6150   47.5750 N   0  0  0  0  0
   44.0760    0.2350   47.1860 C   0  0  0  0  0
   45.3690   -0.5400   46.9630 C   0  0  0  0  0
   45.6600   -0.9730   45.8240 O   0  0  0  0  0
   43.2550    0.2010   45.8890 C   0  0  0  0  0
   42.0770    1.1690   46.0080 C   0  0  0  0  0
   42.7580   -1.2090   45.6170 C   0  0  0  0  0
   41.4740    1.5490   44.6850 C   0  0  0  0  0
   46.1060   -0.7060   47.9580 O   0  0  0  0  0
   41.1765   18.8314   59.9880 H   0  0  0  0  0
   41.6481   17.2792   59.6068 H   0  0  0  0  0
   40.9342   18.2413   58.4486 H   0  0  0  0  0
   39.7233   17.1361   60.8655 H   0  0  0  0  0
   38.6601   19.3264   59.2302 H   0  0  0  0  0
   38.6845   19.0597   60.9943 H   0  0  0  0  0
   35.1722   18.5381   61.4600 H   0  0  0  0  0
   36.6132   20.3952   60.8478 H   0  0  0  0  0
   40.1022   17.0164   57.4278 H   0  0  0  0  0
   38.2679   14.7233   57.2077 H   0  0  0  0  0
   40.1601   16.0200   55.2007 H   0  0  0  0  0
   38.4155   16.4670   55.4529 H   0  0  0  0  0
   37.5760   13.9857   55.6835 H   0  0  0  0  0
   38.9217   12.7944   56.0412 H   0  0  0  0  0
   41.1858   11.5126   57.3704 H   0  0  0  0  0
   40.4864    9.5782   55.9487 H   0  0  0  0  0
   39.1577   10.6762   55.2962 H   0  0  0  0  0
   38.3844   10.8705   57.6383 H   0  0  0  0  0
   39.5110    9.5077   58.0294 H   0  0  0  0  0
   39.0700    8.2118   55.7257 H   0  0  0  0  0
   42.4985    9.9799   55.7660 H   0  0  0  0  0
   43.7596   11.7600   53.7179 H   0  0  0  0  0
   45.4820    9.9723   53.6598 H   0  0  0  0  0
   44.5782    9.1508   55.0014 H   0  0  0  0  0
   45.4555    9.5716   56.7127 H   0  0  0  0  0
   44.1057   10.8663   51.5529 H   0  0  0  0  0
   41.8144    9.5960   50.4746 H   0  0  0  0  0
   44.6363    9.7231   49.3929 H   0  0  0  0  0
   43.2681   10.9173   49.1063 H   0  0  0  0  0
   43.4527    8.0675   48.0957 H   0  0  0  0  0
   41.1668    8.7415   48.6888 H   0  0  0  0  0
   41.3505   10.2287   47.7268 H   0  0  0  0  0
   41.3670    8.6401   46.9223 H   0  0  0  0  0
   43.6006   10.7381   46.6699 H   0  0  0  0  0
   44.9507    9.6053   46.9249 H   0  0  0  0  0
   43.5770    9.1356   45.8938 H   0  0  0  0  0
   41.1555    7.5546   50.3534 H   0  0  0  0  0
   42.5186    5.4454   51.7080 H   0  0  0  0  0
   40.5114    5.1935   49.4695 H   0  0  0  0  0
   40.1130    5.5062   51.2415 H   0  0  0  0  0
   41.7118    3.1028   50.6450 H   0  0  0  0  0
   40.9211    3.7547   52.8928 H   0  0  0  0  0
   39.2387    3.7253   52.3100 H   0  0  0  0  0
   40.1849    2.2182   52.3751 H   0  0  0  0  0
   38.7865    3.2999   49.8737 H   0  0  0  0  0
   40.1526    3.0578   48.7574 H   0  0  0  0  0
   39.7508    1.8052   49.9576 H   0  0  0  0  0
   43.7257    3.6811   50.9111 H   0  0  0  0  0
   44.5906    3.9600   48.0622 H   0  0  0  0  0
   46.8486    3.1218   48.8887 H   0  0  0  0  0
   46.2499    3.5694   50.5501 H   0  0  0  0  0
   45.1293    6.1317   47.9795 H   0  0  0  0  0
   48.7354    7.6295   49.6876 H   0  0  0  0  0
   44.4113    2.3208   46.8417 H   0  0  0  0  0
   43.5181   -0.2308   47.9983 H   0  0  0  0  0
   44.9635   -0.7387   45.2063 H   0  0  0  0  0
   43.8862    0.5071   45.0548 H   0  0  0  0  0
   42.4502    2.0823   46.4713 H   0  0  0  0  0
   41.3015    0.6700   46.5891 H   0  0  0  0  0
   43.6108   -1.8805   45.5170 H   0  0  0  0  0
   42.1302   -1.5377   46.4452 H   0  0  0  0  0
   42.1778   -1.2167   44.6943 H   0  0  0  0  0
   42.2313    2.0316   44.0672 H   0  0  0  0  0
   41.1101    0.6530   44.1823 H   0  0  0  0  0
   40.6448    2.2371   44.8493 H   0  0  0  0  0
  1  2  1  0  0  0
  2  3  1  0  0  0
  2  5  1  0  0  0
  3  4  1  0  0  0
  4  7  1  0  0  0
  5  6  2  0  0  0
  5 11  1  0  0  0
  7  8  1  0  0  0
  7  9  2  0  0  0
  7 10  1  0  0  0
 11 12  1  0  0  0
 12 13  1  0  0  0
 12 15  1  0  0  0
 13 14  2  0  0  0
 13 19  1  0  0  0
 15 16  1  0  0  0
 16 17  1  0  0  0
 16 18  2  0  0  0
 19 20  1  0  0  0
 20 21  1  0  0  0
 20 23  1  0  0  0
 21 22  2  0  0  0
 21 28  1  0  0  0
 23 24  1  0  0  0
 24 25  1  0  0  0
 25 26  1  0  0  0
 25 27  2  0  0  0
 28 29  1  0  0  0
 29 30  1  0  0  0
 29 32  1  0  0  0
 30 31  2  0  0  0
 30 36  1  0  0  0
 32 33  1  0  0  0
 33 34  2  0  0  0
 33 35  1  0  0  0
 36 37  1  0  0  0
 37 38  1  0  0  0
 37 40  1  0  0  0
 38 39  2  0  0  0
 38 44  1  0  0  0
 40 41  1  0  0  0
 41 42  1  0  0  0
 41 43  1  0  0  0
 44 45  1  0  0  0
 45 46  1  0  0  0
 45 48  1  0  0  0
 46 47  2  0  0  0
 46 52  1  0  0  0
 48 49  1  0  0  0
 49 50  1  0  0  0
 49 51  1  0  0  0
 52 53  1  0  0  0
 53 54  1  0  0  0
 53 56  1  0  0  0
 54 55  2  0  0  0
 54 62  1  0  0  0
 56 57  1  0  0  0
 57 58  4  0  0  0
 57 59  4  0  0  0
 58 60  4  0  0  0
 59 61  4  0  0  0
 60 61  4  0  0  0
 62 63  1  0  0  0
 63 64  1  0  0  0
 63 66  1  0  0  0
 64 65  1  0  0  0
 64 70  2  0  0  0
 66 67  1  0  0  0
 66 68  1  0  0  0
 67 69  1  0  0  0
  1 71  1  0  0  0
  1 72  1  0  0  0
  1 73  1  0  0  0
  2 74  1  0  0  0
  3 75  1  0  0  0
  3 76  1  0  0  0
  8 77  1  0  0  0
 10 78  1  0  0  0
 11 79  1  0  0  0
 12 80  1  0  0  0
 15 81  1  0  0  0
 15 82  1  0  0  0
 17 83  1  0  0  0
 19 84  1  0  0  0
 20 85  1  0  0  0
 23 86  1  0  0  0
 23 87  1  0  0  0
 24 88  1  0  0  0
 24 89  1  0  0  0
 26 90  1  0  0  0
 28 91  1  0  0  0
 29 92  1  0  0  0
 32 93  1  0  0  0
 32 94  1  0  0  0
 35 95  1  0  0  0
 36 96  1  0  0  0
 37 97  1  0  0  0
 40 98  1  0  0  0
 40 99  1  0  0  0
 41100  1  0  0  0
 42101  1  0  0  0
 42102  1  0  0  0
 42103  1  0  0  0
 43104  1  0  0  0
 43105  1  0  0  0
 43106  1  0  0  0
 44107  1  0  0  0
 45108  1  0  0  0
 48109  1  0  0  0
 48110  1  0  0  0
 49111  1  0  0  0
 50112  1  0  0  0
 50113  1  0  0  0
 50114  1  0  0  0
 51115  1  0  0  0
 51116  1  0  0  0
 51117  1  0  0  0
 52118  1  0  0  0
 53119  1  0  0  0
 56120  1  0  0  0
 56121  1  0  0  0
 59122  1  0  0  0
 60123  1  0  0  0
 62124  1  0  0  0
 63125  1  0  0  0
 65126  1  0  0  0
 66127  1  0  0  0
 67128  1  0  0  0
 67129  1  0  0  0
 68130  1  0  0  0
 68131  1  0  0  0
 68132  1  0  0  0
 69133  1  0  0  0
 69134  1  0  0  0
 69135  1  0  0  0
M  END
$$$$
