1qjb_ligand
  -I-interpret- 

125127  0  0  0  0  0  0  0  0999 V2000
   20.1418   -4.0512   44.3787 O   0  0  0  0  0
   33.7040  -11.7080   45.4570 N   0  3  0  0  0
   32.5920  -10.8830   44.8900 C   0  0  0  0  0
   31.2250  -11.4680   45.2560 C   0  0  0  0  0
   31.0810  -12.6570   45.5540 O   0  0  0  0  0
   32.6520  -10.7150   43.3830 C   0  0  0  0  0
   30.2260  -10.5840   45.2530 N   0  0  0  0  0
   28.8680  -11.0060   45.5540 C   0  0  0  0  0
   28.2210  -11.5880   44.2960 C   0  0  0  0  0
   28.4290  -11.1260   43.1800 O   0  0  0  0  0
   28.0420   -9.8390   46.0750 C   0  0  0  0  0
   27.5880   -8.8080   45.0450 C   0  0  0  0  0
   26.5230   -7.9000   45.6350 C   0  0  0  0  0
   26.0330   -6.8480   44.7550 N   0  0  0  0  0
   25.3330   -5.7970   45.1870 C   0  0  0  0  0
   25.0330   -5.6480   46.4740 N   0  0  0  0  0
   24.9110   -4.8680   44.3350 N   0  0  0  0  0
   27.4530  -12.6510   44.4850 N   0  0  0  0  0
   26.7030  -13.2340   43.3830 C   0  0  0  0  0
   25.7100  -12.1640   42.9250 C   0  0  0  0  0
   25.1860  -11.4400   43.7940 O   0  0  0  0  0
   25.8920  -14.4370   43.8920 C   0  0  0  0  0
   26.7620  -15.5270   44.1730 O   0  0  0  0  0
   25.3430  -12.1450   41.6610 N   0  0  0  0  0
   24.2960  -11.1990   41.2440 C   0  0  0  0  0
   22.8830  -11.7370   41.3870 C   0  0  0  0  0
   22.5980  -12.8820   41.0110 O   0  0  0  0  0
   24.5650  -10.7640   39.8020 C   0  0  0  0  0
   25.9730  -10.2610   39.6680 C   0  0  0  0  0
   26.3020   -8.9400   39.8920 N   0  0  0  0  0
   27.1290  -10.9150   39.3860 C   0  0  0  0  0
   27.6050   -8.7940   39.7430 C   0  0  0  0  0
   28.1270   -9.9720   39.4390 N   0  0  0  0  0
   21.9530  -10.8670   41.8380 N   0  0  0  0  0
   20.5600  -11.2480   41.8160 C   0  0  0  0  0
   20.0940  -11.7470   43.1800 C   0  0  0  0  0
   20.2670  -10.4570   43.8310 O   0  0  0  0  0
   19.6700  -10.0950   41.3350 C   0  0  0  0  0
   20.2000   -9.0240   41.0910 O   0  0  0  0  0
   20.0720  -10.3110   45.7390 P   0  0  0  0  0
   20.9430  -11.3450   46.4650 O   0  0  0  0  0
   18.6300  -10.8190   45.9620 O   0  0  0  0  0
   20.1870   -8.9560   46.3700 O   0  0  0  0  0
   18.4010  -10.3550   41.0750 N   0  0  0  0  0
   17.5140   -9.4280   40.3850 C   0  0  0  0  0
   16.1630   -9.3230   41.0350 C   0  0  0  0  0
   15.7070  -10.4290   41.2390 O   0  0  0  0  0
   17.3650   -9.7520   38.8840 C   0  0  0  0  0
   16.5400   -8.7200   38.1250 C   0  0  0  0  0
   15.1550   -8.7860   38.0680 C   0  0  0  0  0
   17.1460   -7.6590   37.4660 C   0  0  0  0  0
   14.4070   -7.8070   37.4280 C   0  0  0  0  0
   16.4370   -6.6930   36.7850 C   0  0  0  0  0
   15.0590   -6.7860   36.7740 C   0  0  0  0  0
   14.3150   -5.8140   36.1370 O   0  0  0  0  0
   15.7090   -8.1430   41.3830 N   0  0  0  0  0
   16.1880   -6.8210   41.1870 C   0  0  0  0  0
   17.4290   -6.5830   42.0460 C   0  0  0  0  0
   17.5210   -7.1580   43.1360 O   0  0  0  0  0
   15.0990   -5.8180   41.6080 C   0  0  0  0  0
   14.4910   -6.6040   42.7560 C   0  0  0  0  0
   14.4370   -7.9760   42.0910 C   0  0  0  0  0
   18.2970   -5.6590   41.6770 N   0  0  0  0  0
   19.5020   -5.3820   42.4510 C   0  0  0  0  0
   19.3430   -4.2020   43.4160 C   0  0  0  0  0
   18.4050   -3.3880   43.2330 O   0  0  0  0  0
   20.6680   -5.1370   41.5080 C   0  0  0  0  0
   20.7911   -4.7583   44.3681 H   0  0  0  0  0
   33.5946  -11.7744   46.4689 H   0  0  0  0  0
   33.6750  -12.6422   45.0486 H   0  0  0  0  0
   34.5978  -11.2678   45.2386 H   0  0  0  0  0
   32.7236   -9.8985   45.3389 H   0  0  0  0  0
   33.5870  -10.2256   43.1102 H   0  0  0  0  0
   32.6008  -11.6943   42.9072 H   0  0  0  0  0
   31.8112  -10.1049   43.0530 H   0  0  0  0  0
   30.4164   -9.6053   45.0380 H   0  0  0  0  0
   28.9036  -11.7705   46.3302 H   0  0  0  0  0
   28.6853   -9.3034   46.7731 H   0  0  0  0  0
   27.1312  -10.2749   46.4856 H   0  0  0  0  0
   27.1715   -9.3286   44.1827 H   0  0  0  0  0
   28.4447   -8.2028   44.7484 H   0  0  0  0  0
   26.9812   -7.4004   46.4886 H   0  0  0  0  0
   25.6672   -8.5353   45.8634 H   0  0  0  0  0
   26.2351   -6.9181   43.7577 H   0  0  0  0  0
   24.4940   -4.8386   46.7816 H   0  0  0  0  0
   25.3419   -6.3432   47.1535 H   0  0  0  0  0
   25.1215   -4.9545   43.3407 H   0  0  0  0  0
   27.3868  -13.0657   45.4145 H   0  0  0  0  0
   27.3718  -13.5554   42.5846 H   0  0  0  0  0
   25.1771  -14.7373   43.1260 H   0  0  0  0  0
   25.3654  -14.1544   44.8036 H   0  0  0  0  0
   26.2469  -16.2726   44.4899 H   0  0  0  0  0
   25.7758  -12.7735   40.9842 H   0  0  0  0  0
   24.3475  -10.3457   41.9202 H   0  0  0  0  0
   23.8732   -9.9652   39.5348 H   0  0  0  0  0
   24.4261  -11.6181   39.1393 H   0  0  0  0  0
   27.2426  -11.9757   39.1623 H   0  0  0  0  0
   28.1581   -7.8611   39.8518 H   0  0  0  0  0
   22.2315   -9.9511   42.1902 H   0  0  0  0  0
   20.4661  -12.0690   41.1052 H   0  0  0  0  0
   20.6147  -12.6030   43.6093 H   0  0  0  0  0
   19.1107  -12.2138   43.2378 H   0  0  0  0  0
   20.8470  -12.1992   46.0376 H   0  0  0  0  0
   18.5330  -11.6877   45.5651 H   0  0  0  0  0
   18.0218  -11.2536   41.3736 H   0  0  0  0  0
   17.9984   -8.4551   40.4687 H   0  0  0  0  0
   16.8510  -10.7098   38.8027 H   0  0  0  0  0
   18.3639   -9.7614   38.4478 H   0  0  0  0  0
   14.6424   -9.6261   38.5366 H   0  0  0  0  0
   18.2334   -7.5865   37.4882 H   0  0  0  0  0
   13.3178   -7.8463   37.4431 H   0  0  0  0  0
   16.9486   -5.8797   36.2703 H   0  0  0  0  0
   14.9056   -5.1758   35.7302 H   0  0  0  0  0
   16.4394   -6.6873   40.1349 H   0  0  0  0  0
   14.4005   -5.5370   40.8198 H   0  0  0  0  0
   15.4628   -4.8245   41.8702 H   0  0  0  0  0
   13.5349   -6.2277   43.1199 H   0  0  0  0  0
   15.0492   -6.5643   43.6914 H   0  0  0  0  0
   13.5945   -8.0442   41.4028 H   0  0  0  0  0
   14.2948   -8.7638   42.8307 H   0  0  0  0  0
   18.1200   -5.1239   40.8269 H   0  0  0  0  0
   19.6943   -6.2595   43.0684 H   0  0  0  0  0
   20.4847   -4.2287   40.9340 H   0  0  0  0  0
   21.5844   -5.0236   42.0872 H   0  0  0  0  0
   20.7684   -5.9836   40.8288 H   0  0  0  0  0
 34 26  1  0  0  0
 38 39  2  0  0  0
 44 38  1  0  0  0
 38 35  1  0  0  0
 35 36  1  0  0  0
 35 34  1  0  0  0
 36 37  1  0  0  0
 37 40  1  0  0  0
 40 41  1  0  0  0
 40 43  2  0  0  0
 40 42  1  0  0  0
 65  1  1  0  0  0
  4  3  1  0  0  0
  3  6  1  0  0  0
  3  2  1  0  0  0
  4  5  2  0  0  0
  9  8  1  0  0  0
  8 11  1  0  0  0
  8  7  1  0  0  0
 11 12  1  0  0  0
 12 13  1  0  0  0
 13 14  1  0  0  0
 14 15  1  0  0  0
 15 16  1  0  0  0
 15 17  2  0  0  0
  9 10  2  0  0  0
 20 19  1  0  0  0
 19 22  1  0  0  0
 19 18  1  0  0  0
 22 23  1  0  0  0
 20 21  2  0  0  0
 26 25  1  0  0  0
 25 28  1  0  0  0
 25 24  1  0  0  0
 28 29  1  0  0  0
 29 31  4  0  0  0
 29 30  4  0  0  0
 30 32  4  0  0  0
 32 33  4  0  0  0
 31 33  4  0  0  0
 26 27  2  0  0  0
 46 45  1  0  0  0
 45 48  1  0  0  0
 45 44  1  0  0  0
 48 49  1  0  0  0
 49 51  4  0  0  0
 49 50  4  0  0  0
 50 52  4  0  0  0
 52 54  4  0  0  0
 54 55  1  0  0  0
 53 54  4  0  0  0
 51 53  4  0  0  0
 46 47  2  0  0  0
 57 56  1  0  0  0
 57 60  1  0  0  0
 58 57  1  0  0  0
 58 59  2  0  0  0
 60 61  1  0  0  0
 61 62  1  0  0  0
 56 62  1  0  0  0
 64 65  1  0  0  0
 64 67  1  0  0  0
 63 64  1  0  0  0
 65 66  2  0  0  0
  7  4  1  0  0  0
 18  9  1  0  0  0
 24 20  1  0  0  0
 56 46  1  0  0  0
 58 63  1  0  0  0
  1 68  1  0  0  0
  2 69  1  0  0  0
  2 70  1  0  0  0
  2 71  1  0  0  0
  3 72  1  0  0  0
  6 73  1  0  0  0
  6 74  1  0  0  0
  6 75  1  0  0  0
  7 76  1  0  0  0
  8 77  1  0  0  0
 11 78  1  0  0  0
 11 79  1  0  0  0
 12 80  1  0  0  0
 12 81  1  0  0  0
 13 82  1  0  0  0
 13 83  1  0  0  0
 14 84  1  0  0  0
 16 85  1  0  0  0
 16 86  1  0  0  0
 17 87  1  0  0  0
 18 88  1  0  0  0
 19 89  1  0  0  0
 22 90  1  0  0  0
 22 91  1  0  0  0
 23 92  1  0  0  0
 24 93  1  0  0  0
 25 94  1  0  0  0
 28 95  1  0  0  0
 28 96  1  0  0  0
 31 97  1  0  0  0
 32 98  1  0  0  0
 34 99  1  0  0  0
 35100  1  0  0  0
 36101  1  0  0  0
 36102  1  0  0  0
 41103  1  0  0  0
 42104  1  0  0  0
 44105  1  0  0  0
 45106  1  0  0  0
 48107  1  0  0  0
 48108  1  0  0  0
 50109  1  0  0  0
 51110  1  0  0  0
 52111  1  0  0  0
 53112  1  0  0  0
 55113  1  0  0  0
 57114  1  0  0  0
 60115  1  0  0  0
 60116  1  0  0  0
 61117  1  0  0  0
 61118  1  0  0  0
 62119  1  0  0  0
 62120  1  0  0  0
 63121  1  0  0  0
 64122  1  0  0  0
 67123  1  0  0  0
 67124  1  0  0  0
 67125  1  0  0  0
M  END
$$$$
