1shc_ligand
  -I-interpret- 

199202  0  0  0  0  0  0  0  0999 V2000
   -1.3960    5.9520   -8.2680 N   0  3  0  0  0
   -1.6090    4.8990   -7.2350 C   0  0  0  0  0
   -0.4890    4.9690   -6.1940 C   0  0  0  0  0
   -0.1210    3.9780   -5.5960 O   0  0  0  0  0
   -1.6000    3.5220   -7.9020 C   0  0  0  0  0
   -2.9420    3.2600   -8.5290 C   0  0  0  0  0
   -4.1300    3.5710   -7.8870 N   0  0  0  0  0
   -3.3000    2.7190   -9.7390 C   0  0  0  0  0
   -5.1380    3.2180   -8.7060 C   0  0  0  0  0
   -4.6870    2.6930   -9.8490 N   0  0  0  0  0
    0.0560    6.1340   -5.9720 N   0  0  0  0  0
    1.1510    6.2640   -4.9690 C   0  0  0  0  0
    0.5850    6.8420   -3.6710 C   0  0  0  0  0
    0.5660    8.0390   -3.4670 O   0  0  0  0  0
    2.2370    7.1920   -5.5170 C   0  0  0  0  0
    2.7640    6.6310   -6.8400 C   0  0  0  0  0
    3.3880    7.2830   -4.5120 C   0  0  0  0  0
    3.0670    7.7820   -7.8000 C   0  0  0  0  0
    0.1240    5.9970   -2.7900 N   0  0  0  0  0
   -0.4410    6.4900   -1.5020 C   0  0  0  0  0
    0.6030    7.3420   -0.7790 C   0  0  0  0  0
    1.6780    6.8800   -0.4460 O   0  0  0  0  0
   -0.8210    5.2960   -0.6230 C   0  0  0  0  0
   -1.6630    4.3050   -1.4270 C   0  0  0  0  0
   -1.6280    5.7730    0.5830 C   0  0  0  0  0
   -2.5930    5.0650   -2.3750 C   0  0  0  0  0
    0.2920    8.5850   -0.5320 N   0  0  0  0  0
    1.2590    9.4730    0.1710 C   0  0  0  0  0
    0.5050   10.3240    1.1930 C   0  0  0  0  0
   -0.6480   10.6590    1.0050 O   0  0  0  0  0
    1.9530   10.3760   -0.8470 C   0  0  0  0  0
    2.8200    9.5190   -1.7700 C   0  0  0  0  0
    3.2630   10.3510   -2.9750 C   0  0  0  0  0
    3.9350   11.3480   -2.7670 O   0  0  0  0  0
    2.9240    9.9760   -4.0850 O   0  0  0  0  0
    1.1410   10.6700    2.2770 N   0  0  0  0  0
    0.4530   11.4920    3.3110 C   0  0  0  0  0
    0.8950   12.9570    3.1960 C   0  0  0  0  0
    1.9510   13.2440    2.6670 O   0  0  0  0  0
    0.8170   10.9560    4.6960 C   0  0  0  0  0
    0.0950    9.6280    4.9340 C   0  0  0  0  0
   -1.1170    9.5640    4.8860 O   0  0  0  0  0
    0.7940    8.5560    5.1930 N   0  0  0  0  0
    0.0670   13.8400    3.7000 N   0  0  0  0  0
    0.3270   15.2860    3.6790 C   0  0  0  0  0
    1.3750   15.6750    4.7340 C   0  0  0  0  0
    1.8320   16.8010    4.7700 O   0  0  0  0  0
   -1.0070   15.9460    4.0050 C   0  0  0  0  0
   -1.7410   14.8590    4.8270 C   0  0  0  0  0
   -1.2190   13.4840    4.3410 C   0  0  0  0  0
    1.7620   14.7690    5.5950 N   0  0  0  0  0
    2.7740   15.1170    6.6300 C   0  0  0  0  0
    4.1700   14.7800    6.1080 C   0  0  0  0  0
    5.0900   15.5660    6.2120 O   0  0  0  0  0
    2.4970   14.3140    7.9030 C   0  0  0  0  0
    2.0120   15.2550    9.0080 C   0  0  0  0  0
    3.2140   15.9510    9.6490 C   0  0  0  0  0
    4.0690   16.4710    8.9590 O   0  0  0  0  0
    3.3180   15.9830   10.9490 N   0  0  0  0  0
    4.3320   13.6150    5.5460 N   0  0  0  0  0
    5.6660   13.2240    5.0160 C   0  0  0  0  0
    5.8410   13.7970    3.6080 C   0  0  0  0  0
    6.7900   14.5020    3.3300 O   0  0  0  0  0
    5.7620   11.6970    4.9730 C   0  0  0  0  0
    7.1220   11.2580    5.4630 C   0  0  0  0  0
    7.2300   10.4780    6.6210 C   0  0  0  0  0
    8.2730   11.6240    4.7560 C   0  0  0  0  0
    8.4900   10.0660    7.0720 C   0  0  0  0  0
    9.5320   11.2120    5.2070 C   0  0  0  0  0
    9.6400   10.4320    6.3640 C   0  0  0  0  0
   10.9000   10.0210    6.8150 O   0  0  0  0  0
   11.8240   11.0880    7.4790 P   0  0  0  0  0
   12.3790   11.9150    6.2920 O   0  0  0  0  0
   12.9820   10.2680    8.1040 O   0  0  0  0  0
   10.8690   11.8640    8.5030 O   0  0  0  0  0
    4.9340   13.5050    2.7170 N   0  0  0  0  0
    5.0540   14.0400    1.3310 C   0  0  0  0  0
    4.1190   15.2390    1.1680 C   0  0  0  0  0
    2.9120   15.1110    1.2340 O   0  0  0  0  0
    4.6700   12.9520    0.3260 C   0  0  0  0  0
    5.8730   12.0890    0.0340 C   0  0  0  0  0
    6.4210   11.2910    1.0440 C   0  0  0  0  0
    6.4400   12.0850   -1.2460 C   0  0  0  0  0
    7.5350   10.4880    0.7760 C   0  0  0  0  0
    7.5540   11.2810   -1.5150 C   0  0  0  0  0
    8.1010   10.4830   -0.5030 C   0  0  0  0  0
    4.6650   16.4050    0.9560 N   0  0  0  0  0
    3.8070   17.6120    0.7890 C   0  0  0  0  0
    3.7580   18.0030   -0.6890 C   0  0  0  0  0
    4.7760   18.1960   -1.3230 O   0  0  0  0  0
    4.3890   18.7680    1.6030 C   0  0  0  0  0
    3.7040   19.9680    1.2670 O   0  0  0  0  0
    2.5830   18.1220   -1.2430 N   0  0  0  0  0
    2.4720   18.5010   -2.6800 C   0  0  0  0  0
    1.3920   19.5720   -2.8450 C   0  0  0  0  0
    0.2770   19.2880   -3.2340 O   0  0  0  0  0
    2.0990   17.2670   -3.5040 C   0  0  0  0  0
    3.3320   16.7670   -4.2590 C   0  0  0  0  0
    4.4220   16.9040   -3.7290 O   0  0  0  0  0
    3.1650   16.2550   -5.3540 O   0  0  0  0  0
    1.7130   20.8030   -2.5530 N   0  0  0  0  0
    0.7040   21.8900   -2.6940 C   0  0  0  0  0
    1.3830   23.2470   -2.4950 C   0  0  0  0  0
    2.5620   23.3460   -2.7890 O   0  0  0  0  0
   -0.3910   21.7090   -1.6410 C   0  0  0  0  0
    0.7110   24.1640   -2.0510 O   0  0  0  0  0
   -1.4021    6.8696   -7.8227 H   0  0  0  0  0
   -0.4970    5.8008   -8.7256 H   0  0  0  0  0
   -2.1436    5.9037   -8.9602 H   0  0  0  0  0
   -2.5694    5.0601   -6.7453 H   0  0  0  0  0
   -1.3930    2.7570   -7.1536 H   0  0  0  0  0
   -0.8282    3.4958   -8.6712 H   0  0  0  0  0
   -2.6034    2.3637  -10.4984 H   0  0  0  0  0
   -6.1937    3.3449   -8.4661 H   0  0  0  0  0
   -0.2671    6.9547   -6.4843 H   0  0  0  0  0
    1.5826    5.2832   -4.7696 H   0  0  0  0  0
    1.8172    8.1846   -5.6804 H   0  0  0  0  0
    2.0112    5.9786   -7.2825 H   0  0  0  0  0
    3.6761    6.0634   -6.6553 H   0  0  0  0  0
    3.0139    7.6793   -3.5680 H   0  0  0  0  0
    3.8067    6.2897   -4.3501 H   0  0  0  0  0
    4.1601    7.9446   -4.9048 H   0  0  0  0  0
    2.1549    8.3496   -7.9840 H   0  0  0  0  0
    3.8194    8.4345   -7.3569 H   0  0  0  0  0
    3.4420    7.3795   -8.7410 H   0  0  0  0  0
    0.1504    4.9959   -2.9835 H   0  0  0  0  0
   -1.3269    7.0930   -1.7011 H   0  0  0  0  0
    0.0919    4.8079   -0.2817 H   0  0  0  0  0
   -2.2600    3.7015   -0.7433 H   0  0  0  0  0
   -1.0037    3.6606   -2.0086 H   0  0  0  0  0
   -1.0288    6.4726    1.1658 H   0  0  0  0  0
   -2.5352    6.2692    0.2382 H   0  0  0  0  0
   -1.8938    4.9165    1.2025 H   0  0  0  0  0
   -3.2518    5.7113   -1.7950 H   0  0  0  0  0
   -1.9974    5.6704   -3.0583 H   0  0  0  0  0
   -3.1899    4.3528   -2.9447 H   0  0  0  0  0
   -0.6158    8.9494   -0.8212 H   0  0  0  0  0
    2.0096    8.8714    0.6836 H   0  0  0  0  0
    2.5786   11.1011   -0.3264 H   0  0  0  0  0
    1.2046   10.9062   -1.4360 H   0  0  0  0  0
    2.2438    8.6603   -2.1145 H   0  0  0  0  0
    3.6986    9.1740   -1.2249 H   0  0  0  0  0
    4.0777   11.4451   -1.8226 H   0  0  0  0  0
    2.1083   10.3782    2.4168 H   0  0  0  0  0
   -0.6253   11.4350    3.1619 H   0  0  0  0  0
    0.5136   11.6761    5.4559 H   0  0  0  0  0
    1.8942   10.7997    4.7539 H   0  0  0  0  0
    0.3222    7.6663    5.3547 H   0  0  0  0  0
    1.8118    8.6083    5.2336 H   0  0  0  0  0
    0.7190   15.6010    2.7119 H   0  0  0  0  0
   -1.5586   16.2466    3.1142 H   0  0  0  0  0
   -0.8929   16.8830    4.5501 H   0  0  0  0  0
   -2.8189   14.9323    4.6830 H   0  0  0  0  0
   -1.5472   14.9878    5.8919 H   0  0  0  0  0
   -1.1087   12.7590    5.1474 H   0  0  0  0  0
   -1.9088   12.9793    3.6646 H   0  0  0  0  0
    1.3716   13.8274    5.5572 H   0  0  0  0  0
    2.7165   16.1824    6.8531 H   0  0  0  0  0
    3.4129   13.8186    8.2252 H   0  0  0  0  0
    1.7293   13.5672    7.7004 H   0  0  0  0  0
    1.4779   14.6812    9.7654 H   0  0  0  0  0
    1.3441   16.0031    8.5810 H   0  0  0  0  0
    4.1163   16.4441   11.3856 H   0  0  0  0  0
    2.6011   15.5469   11.5289 H   0  0  0  0  0
    3.5442   12.9716    5.4696 H   0  0  0  0  0
    6.4511   13.6172    5.6619 H   0  0  0  0  0
    5.6196   11.3549    3.9479 H   0  0  0  0  0
    4.9915   11.2685    5.6139 H   0  0  0  0  0
    6.3336   10.1917    7.1711 H   0  0  0  0  0
    8.1888   12.2301    3.8539 H   0  0  0  0  0
    8.5749    9.4604    7.9743 H   0  0  0  0  0
   10.4285   11.4986    4.6572 H   0  0  0  0  0
   12.6461    9.7524    8.8408 H   0  0  0  0  0
   10.5850   11.2608    9.1937 H   0  0  0  0  0
    4.1437   12.9113    2.9685 H   0  0  0  0  0
    6.0825   14.3519    1.1494 H   0  0  0  0  0
    4.3235   13.4164   -0.5972 H   0  0  0  0  0
    3.8740   12.3359    0.7442 H   0  0  0  0  0
    5.9797   11.2948    2.0407 H   0  0  0  0  0
    6.0142   12.7077   -2.0328 H   0  0  0  0  0
    7.9615    9.8667    1.5635 H   0  0  0  0  0
    7.9952   11.2763   -2.5117 H   0  0  0  0  0
    8.9687    9.8573   -0.7120 H   0  0  0  0  0
    5.6801   16.4904    0.9045 H   0  0  0  0  0
    2.7988   17.3919    1.1400 H   0  0  0  0  0
    5.4498   18.8768    1.3771 H   0  0  0  0  0
    4.2682   18.5635    2.6668 H   0  0  0  0  0
    4.0673   20.6959    1.7766 H   0  0  0  0  0
    1.7404   17.9557   -0.6928 H   0  0  0  0  0
    3.4273   18.8948   -3.0269 H   0  0  0  0  0
    1.3174   17.5287   -4.2172 H   0  0  0  0  0
    1.7364   16.4824   -2.8399 H   0  0  0  0  0
    2.2288   16.2549   -5.5665 H   0  0  0  0  0
    2.6550   21.0208   -2.2282 H   0  0  0  0  0
    0.2621   21.8477   -3.6895 H   0  0  0  0  0
   -0.8746   20.7427   -1.7840 H   0  0  0  0  0
    0.0527   21.7510   -0.6463 H   0  0  0  0  0
   -1.1285   22.5048   -1.7451 H   0  0  0  0  0
   -0.1846   23.8560   -1.8938 H   0  0  0  0  0
  1  2  1  0  0  0
  2  3  1  0  0  0
  2  5  1  0  0  0
  3  4  2  0  0  0
  3 11  1  0  0  0
  5  6  1  0  0  0
  6  7  4  0  0  0
  6  8  4  0  0  0
  7  9  4  0  0  0
  8 10  4  0  0  0
  9 10  4  0  0  0
 11 12  1  0  0  0
 12 13  1  0  0  0
 12 15  1  0  0  0
 13 14  2  0  0  0
 13 19  1  0  0  0
 15 16  1  0  0  0
 15 17  1  0  0  0
 16 18  1  0  0  0
 19 20  1  0  0  0
 20 21  1  0  0  0
 20 23  1  0  0  0
 21 22  2  0  0  0
 21 27  1  0  0  0
 23 24  1  0  0  0
 23 25  1  0  0  0
 24 26  1  0  0  0
 27 28  1  0  0  0
 28 29  1  0  0  0
 28 31  1  0  0  0
 29 30  2  0  0  0
 29 36  1  0  0  0
 31 32  1  0  0  0
 32 33  1  0  0  0
 33 34  1  0  0  0
 33 35  2  0  0  0
 36 37  1  0  0  0
 37 38  1  0  0  0
 37 40  1  0  0  0
 38 39  2  0  0  0
 38 44  1  0  0  0
 40 41  1  0  0  0
 41 42  2  0  0  0
 41 43  1  0  0  0
 44 45  1  0  0  0
 44 50  1  0  0  0
 45 46  1  0  0  0
 45 48  1  0  0  0
 46 47  2  0  0  0
 46 51  1  0  0  0
 48 49  1  0  0  0
 49 50  1  0  0  0
 51 52  1  0  0  0
 52 53  1  0  0  0
 52 55  1  0  0  0
 53 54  2  0  0  0
 53 60  1  0  0  0
 55 56  1  0  0  0
 56 57  1  0  0  0
 57 58  2  0  0  0
 57 59  1  0  0  0
 60 61  1  0  0  0
 61 62  1  0  0  0
 61 64  1  0  0  0
 62 63  2  0  0  0
 62 76  1  0  0  0
 64 65  1  0  0  0
 65 66  4  0  0  0
 65 67  4  0  0  0
 66 68  4  0  0  0
 67 69  4  0  0  0
 68 70  4  0  0  0
 69 70  4  0  0  0
 70 71  1  0  0  0
 71 72  1  0  0  0
 72 73  2  0  0  0
 72 74  1  0  0  0
 72 75  1  0  0  0
 76 77  1  0  0  0
 77 78  1  0  0  0
 77 80  1  0  0  0
 78 79  2  0  0  0
 78 87  1  0  0  0
 80 81  1  0  0  0
 81 82  4  0  0  0
 81 83  4  0  0  0
 82 84  4  0  0  0
 83 85  4  0  0  0
 84 86  4  0  0  0
 85 86  4  0  0  0
 87 88  1  0  0  0
 88 89  1  0  0  0
 88 91  1  0  0  0
 89 90  2  0  0  0
 89 93  1  0  0  0
 91 92  1  0  0  0
 93 94  1  0  0  0
 94 95  1  0  0  0
 94 97  1  0  0  0
 95 96  2  0  0  0
 95101  1  0  0  0
 97 98  1  0  0  0
 98 99  2  0  0  0
 98100  1  0  0  0
101102  1  0  0  0
102103  1  0  0  0
102105  1  0  0  0
103104  2  0  0  0
103106  1  0  0  0
  1107  1  0  0  0
  1108  1  0  0  0
  1109  1  0  0  0
  2110  1  0  0  0
  5111  1  0  0  0
  5112  1  0  0  0
  8113  1  0  0  0
  9114  1  0  0  0
 11115  1  0  0  0
 12116  1  0  0  0
 15117  1  0  0  0
 16118  1  0  0  0
 16119  1  0  0  0
 17120  1  0  0  0
 17121  1  0  0  0
 17122  1  0  0  0
 18123  1  0  0  0
 18124  1  0  0  0
 18125  1  0  0  0
 19126  1  0  0  0
 20127  1  0  0  0
 23128  1  0  0  0
 24129  1  0  0  0
 24130  1  0  0  0
 25131  1  0  0  0
 25132  1  0  0  0
 25133  1  0  0  0
 26134  1  0  0  0
 26135  1  0  0  0
 26136  1  0  0  0
 27137  1  0  0  0
 28138  1  0  0  0
 31139  1  0  0  0
 31140  1  0  0  0
 32141  1  0  0  0
 32142  1  0  0  0
 34143  1  0  0  0
 36144  1  0  0  0
 37145  1  0  0  0
 40146  1  0  0  0
 40147  1  0  0  0
 43148  1  0  0  0
 43149  1  0  0  0
 45150  1  0  0  0
 48151  1  0  0  0
 48152  1  0  0  0
 49153  1  0  0  0
 49154  1  0  0  0
 50155  1  0  0  0
 50156  1  0  0  0
 51157  1  0  0  0
 52158  1  0  0  0
 55159  1  0  0  0
 55160  1  0  0  0
 56161  1  0  0  0
 56162  1  0  0  0
 59163  1  0  0  0
 59164  1  0  0  0
 60165  1  0  0  0
 61166  1  0  0  0
 64167  1  0  0  0
 64168  1  0  0  0
 66169  1  0  0  0
 67170  1  0  0  0
 68171  1  0  0  0
 69172  1  0  0  0
 74173  1  0  0  0
 75174  1  0  0  0
 76175  1  0  0  0
 77176  1  0  0  0
 80177  1  0  0  0
 80178  1  0  0  0
 82179  1  0  0  0
 83180  1  0  0  0
 84181  1  0  0  0
 85182  1  0  0  0
 86183  1  0  0  0
 87184  1  0  0  0
 88185  1  0  0  0
 91186  1  0  0  0
 91187  1  0  0  0
 92188  1  0  0  0
 93189  1  0  0  0
 94190  1  0  0  0
 97191  1  0  0  0
 97192  1  0  0  0
100193  1  0  0  0
101194  1  0  0  0
102195  1  0  0  0
105196  1  0  0  0
105197  1  0  0  0
105198  1  0  0  0
106199  1  0  0  0
M  END
$$$$
