1tlp_ligand
  -I-interpret- 

 70 72  0  0  0  0  0  0  0  0999 V2000
   51.1830   16.9140   -8.2540 C   0  0  0  0  0
   50.9200   18.1370   -7.6430 O   0  0  0  0  0
   50.1710   16.1130   -7.5020 C   0  0  0  0  0
   49.9760   14.7420   -8.0340 O   0  0  0  0  0
   48.8650   16.7500   -7.7870 C   0  0  0  0  0
   48.0220   16.0090   -6.9240 O   0  0  0  0  0
   48.6100   16.5020   -9.2630 C   0  0  0  0  0
   47.2680   16.7170   -9.5930 O   0  0  0  0  0
   49.5720   17.3760  -10.0840 C   0  0  0  0  0
   50.9170   16.9670   -9.6780 O   0  0  0  0  0
   49.3600   17.3970  -11.6040 C   0  0  0  0  0
   51.7150   18.9020   -6.5960 P   0  0  0  0  0
   53.2310   19.0530   -6.8700 O   0  0  0  0  0
   51.1940   20.2340   -6.3250 O   0  0  0  0  0
   51.6670   18.1030   -5.4180 N   0  0  0  0  0
   52.6880   17.9800   -4.3880 C   0  0  0  0  0
   53.5040   16.7200   -4.3740 C   0  0  0  0  0
   54.6370   16.8510   -3.9330 O   0  0  0  0  0
   52.1440   18.2040   -2.9860 C   0  0  0  0  0
   53.2360   18.0740   -1.8520 C   0  0  0  0  0
   54.3930   19.0990   -1.8240 C   0  0  0  0  0
   52.6370   18.1190   -0.4400 C   0  0  0  0  0
   52.9100   15.5590   -4.8310 N   0  0  0  0  0
   53.5360   14.2310   -4.9710 C   0  0  0  0  0
   52.6730   13.2180   -5.7660 C   0  0  0  0  0
   51.4900   13.6410   -5.9320 O   0  0  0  0  0
   54.0320   13.7790   -3.5780 C   0  0  0  0  0
   52.9380   13.3650   -2.6840 C   0  0  0  0  0
   52.1560   14.1970   -1.9470 C   0  0  0  0  0
   52.4770   12.0380   -2.4410 C   0  0  0  0  0
   51.2200   13.4920   -1.2530 N   0  0  0  0  0
   51.3940   12.1660   -1.5210 C   0  0  0  0  0
   52.8730   10.7720   -2.9060 C   0  0  0  0  0
   50.6760   11.0820   -1.0520 C   0  0  0  0  0
   52.1450    9.6940   -2.4440 C   0  0  0  0  0
   51.0840    9.8480   -1.5190 C   0  0  0  0  0
   53.1840   12.0870   -6.1640 O   0  0  0  0  0
   52.2077   16.5443   -8.2149 H   0  0  0  0  0
   50.5016   16.0714   -6.4642 H   0  0  0  0  0
   50.7773   14.2307   -7.8993 H   0  0  0  0  0
   48.7512   17.8217   -7.6237 H   0  0  0  0  0
   48.2389   16.2153   -6.0119 H   0  0  0  0  0
   48.8057   15.4566   -9.5017 H   0  0  0  0  0
   46.7122   16.1493   -9.0541 H   0  0  0  0  0
   49.3768   18.4246   -9.8593 H   0  0  0  0  0
   50.0614   18.0972  -12.0577 H   0  0  0  0  0
   49.5295   16.3985  -12.0070 H   0  0  0  0  0
   48.3391   17.7101  -11.8229 H   0  0  0  0  0
   53.6094   18.1900   -7.0535 H   0  0  0  0  0
   50.8189   17.5533   -5.2802 H   0  0  0  0  0
   53.3672   18.7800   -4.6827 H   0  0  0  0  0
   51.3911   17.4374   -2.8025 H   0  0  0  0  0
   51.7534   19.2208   -2.9469 H   0  0  0  0  0
   53.6528   17.1053   -2.1277 H   0  0  0  0  0
   54.9514   19.0403   -2.7583 H   0  0  0  0  0
   53.9847   20.1027   -1.7057 H   0  0  0  0  0
   55.0558   18.8741   -0.9884 H   0  0  0  0  0
   52.1190   19.0673   -0.2965 H   0  0  0  0  0
   51.9320   17.2965   -0.3194 H   0  0  0  0  0
   53.4360   18.0251    0.2954 H   0  0  0  0  0
   51.9290   15.6282   -5.1017 H   0  0  0  0  0
   54.4145   14.2913   -5.6135 H   0  0  0  0  0
   54.5369   14.6264   -3.1143 H   0  0  0  0  0
   54.6867   12.9194   -3.7216 H   0  0  0  0  0
   52.2633   15.2812   -1.9156 H   0  0  0  0  0
   53.7094   10.6482   -3.5939 H   0  0  0  0  0
   49.8422   11.1938   -0.3589 H   0  0  0  0  0
   52.3942    8.6950   -2.8017 H   0  0  0  0  0
   50.5685    8.9567   -1.1611 H   0  0  0  0  0
   54.1043   12.0406   -5.8948 H   0  0  0  0  0
 15 16  1  0  0  0
 16 19  1  0  0  0
 16 17  1  0  0  0
 17 18  2  0  0  0
 19 20  1  0  0  0
 20 21  1  0  0  0
 20 22  1  0  0  0
 23 24  1  0  0  0
 24 27  1  0  0  0
 24 25  1  0  0  0
 25 26  2  0  0  0
 25 37  1  0  0  0
 27 28  1  0  0  0
 28 29  4  0  0  0
 28 30  4  0  0  0
 30 33  4  0  0  0
 30 32  4  0  0  0
 32 34  4  0  0  0
 32 31  4  0  0  0
 29 31  4  0  0  0
 34 36  4  0  0  0
 35 36  4  0  0  0
 33 35  4  0  0  0
 17 23  1  0  0  0
  2  1  1  0  0  0
  1  3  1  0  0  0
  1 10  1  0  0  0
 12  2  1  0  0  0
  3  4  1  0  0  0
  3  5  1  0  0  0
  5  6  1  0  0  0
  5  7  1  0  0  0
  7  8  1  0  0  0
  9  7  1  0  0  0
 10  9  1  0  0  0
  9 11  1  0  0  0
 12 13  1  0  0  0
 12 14  2  0  0  0
 12 15  1  0  0  0
  1 38  1  0  0  0
  3 39  1  0  0  0
  4 40  1  0  0  0
  5 41  1  0  0  0
  6 42  1  0  0  0
  7 43  1  0  0  0
  8 44  1  0  0  0
  9 45  1  0  0  0
 11 46  1  0  0  0
 11 47  1  0  0  0
 11 48  1  0  0  0
 13 49  1  0  0  0
 15 50  1  0  0  0
 16 51  1  0  0  0
 19 52  1  0  0  0
 19 53  1  0  0  0
 20 54  1  0  0  0
 21 55  1  0  0  0
 21 56  1  0  0  0
 21 57  1  0  0  0
 22 58  1  0  0  0
 22 59  1  0  0  0
 22 60  1  0  0  0
 23 61  1  0  0  0
 24 62  1  0  0  0
 27 63  1  0  0  0
 27 64  1  0  0  0
 29 65  1  0  0  0
 33 66  1  0  0  0
 34 67  1  0  0  0
 35 68  1  0  0  0
 36 69  1  0  0  0
 37 70  1  0  0  0
M  END
$$$$
