1wuq_ligand
  -I-interpret- 

 47 49  0  0  0  0  0  0  0  0999 V2000
  -29.3670  -16.5930    1.3870 P   0  0  0  0  0
  -29.9320  -16.5280   -0.0030 O   0  0  0  0  0
  -29.6650  -15.3580    2.1910 O   0  0  0  0  0
  -27.8610  -16.8070    1.3080 O   0  0  0  0  0
  -30.0460  -17.8300    2.1590 O   0  0  0  0  0
  -30.7920  -19.1420    1.5700 P   0  0  0  0  0
  -29.9290  -19.8200    0.5830 O   0  0  0  0  0
  -32.1090  -18.7760    1.0180 O   0  0  0  0  0
  -30.9650  -20.0790    2.8380 O   0  0  0  0  0
  -31.5070  -19.8760    4.3520 P   0  0  0  0  0
  -31.8460  -21.2250    4.8950 O   0  0  0  0  0
  -32.6320  -18.8910    4.3110 O   0  0  0  0  0
  -24.5370  -19.2800    6.6830 N   0  3  0  0  0
  -23.7640  -19.9790    5.7810 C   0  0  0  0  0
  -22.5720  -20.2770    6.2500 N   0  0  0  0  0
  -22.5750  -19.7390    7.5370 C   0  0  0  0  0
  -21.5700  -19.7220    8.5460 C   0  0  0  0  0
  -20.4290  -20.1840    8.5230 O   0  0  0  0  0
  -22.0110  -19.0650    9.7090 N   0  0  0  0  0
  -23.2690  -18.5000    9.8520 C   0  0  0  0  0
  -23.5220  -17.9170   11.0290 N   0  0  0  0  0
  -24.1900  -18.5070    8.9200 N   0  0  0  0  0
  -23.7840  -19.1380    7.7960 C   0  0  0  0  0
  -24.2060  -20.2540    4.6700 O   0  0  0  0  0
  -30.2230  -19.2560    5.0610 O   0  0  0  0  0
  -29.0590  -20.0250    5.3960 C   0  0  0  0  0
  -28.0950  -19.1190    6.1150 C   0  0  0  0  0
  -26.8490  -19.7980    6.5070 O   0  0  0  0  0
  -27.6400  -17.8860    5.2870 C   0  0  0  0  0
  -28.0620  -16.6830    5.9370 O   0  0  0  0  0
  -26.1510  -18.0740    5.2390 C   0  0  0  0  0
  -25.4680  -16.8210    5.1850 O   0  0  0  0  0
  -25.8950  -18.7610    6.5100 C   0  0  0  0  0
  -29.2843  -15.4486    3.0676 H   0  0  0  0  0
  -27.4979  -16.8488    2.1957 H   0  0  0  0  0
  -29.0872  -20.0361    0.9907 H   0  0  0  0  0
  -32.3154  -18.0603    3.9487 H   0  0  0  0  0
  -22.8078  -17.9069   11.7571 H   0  0  0  0  0
  -25.1112  -18.0832    9.0306 H   0  0  0  0  0
  -28.5984  -20.4245    4.4925 H   0  0  0  0  0
  -29.3332  -20.8656    6.0335 H   0  0  0  0  0
  -28.6764  -18.8054    6.9820 H   0  0  0  0  0
  -28.0632  -17.8039    4.2859 H   0  0  0  0  0
  -27.7780  -15.9251    5.4207 H   0  0  0  0  0
  -25.8051  -18.6194    4.3609 H   0  0  0  0  0
  -24.5209  -16.9751    5.1553 H   0  0  0  0  0
  -25.9798  -18.0672    7.3464 H   0  0  0  0  0
  1  2  2  0  0  0
  1  3  1  0  0  0
  1  4  1  0  0  0
  5  1  1  0  0  0
  6  5  1  0  0  0
  6  7  1  0  0  0
  6  8  2  0  0  0
  9  6  1  0  0  0
 10  9  1  0  0  0
 10 11  2  0  0  0
 10 12  1  0  0  0
 25 10  1  0  0  0
 13 14  1  0  0  0
 13 23  2  0  0  0
 33 13  1  0  0  0
 14 15  1  0  0  0
 14 24  2  0  0  0
 16 15  2  0  0  0
 16 17  1  0  0  0
 23 16  1  0  0  0
 17 18  2  0  0  0
 17 19  1  0  0  0
 20 19  4  0  0  0
 20 21  2  0  0  0
 22 20  1  0  0  0
 23 22  1  0  0  0
 26 25  1  0  0  0
 27 26  1  0  0  0
 28 27  1  0  0  0
 27 29  1  0  0  0
 28 33  1  0  0  0
 29 30  1  0  0  0
 29 31  1  0  0  0
 31 32  1  0  0  0
 31 33  1  0  0  0
  3 34  1  0  0  0
  4 35  1  0  0  0
  7 36  1  0  0  0
 12 37  1  0  0  0
 21 38  1  0  0  0
 22 39  1  0  0  0
 26 40  1  0  0  0
 26 41  1  0  0  0
 27 42  1  0  0  0
 29 43  1  0  0  0
 30 44  1  0  0  0
 31 45  1  0  0  0
 32 46  1  0  0  0
 33 47  1  0  0  0
M  END
$$$$
