2aoh_ligand
  -I-interpret- 

160162  0  0  0  0  0  0  0  0999 V2000
   29.4920   27.7650   16.1540 N   0  3  0  0  0
   28.8420   27.7500   17.4710 C   0  0  0  0  0
   27.5500   28.5200   17.4290 C   0  0  0  0  0
   26.9430   28.9510   18.4070 O   0  0  0  0  0
   29.8990   28.1820   18.5000 C   0  0  0  0  0
   29.5450   29.3960   19.3310 C   0  0  0  0  0
   30.1500   26.9720   19.4060 C   0  0  0  0  0
   27.0200   28.6420   16.2150 N   0  0  0  0  0
   25.5670   28.8200   16.1040 C   0  0  0  0  0
   24.8490   27.5430   16.4720 C   0  0  0  0  0
   25.0540   26.5070   15.8280 O   0  0  0  0  0
   25.2230   29.2560   14.6630 C   0  0  0  0  0
   23.8610   29.0670   14.3740 O   0  0  0  0  0
   23.9960   27.5350   17.5010 N   0  0  0  0  0
   23.1720   26.3690   17.8210 C   0  0  0  0  0
   21.7040   26.6870   17.6130 C   0  0  0  0  0
   21.2420   27.8270   17.8510 O   0  0  0  0  0
   23.3180   25.9040   19.2620 C   0  0  0  0  0
   24.5100   24.9630   19.4510 C   0  0  0  0  0
   24.4380   23.6180   19.1470 C   0  0  0  0  0
   25.7150   25.4960   19.8990 C   0  0  0  0  0
   25.5260   22.7800   19.3060 C   0  0  0  0  0
   26.7890   24.6440   20.1140 C   0  0  0  0  0
   26.7210   23.2990   19.8000 C   0  0  0  0  0
   20.9580   25.7280   17.0750 N   0  0  0  0  0
   19.6140   25.9650   16.5100 C   0  0  0  0  0
   18.7580   24.7510   16.8420 C   0  0  0  0  0
   18.9640   23.7130   16.1640 O   0  0  0  0  0
   19.6410   26.1690   14.9860 C   0  0  0  0  0
   20.4920   27.4170   14.7090 C   0  0  0  0  0
   20.0380   28.5290   14.9230 O   0  0  0  0  0
   21.7750   27.1780   14.3860 N   0  0  0  0  0
   17.9120   24.8570   17.8460 N   0  0  0  0  0
   17.0960   23.7440   18.3060 C   0  0  0  0  0
   15.6380   23.8280   17.9770 C   0  0  0  0  0
   17.2820   23.7760   19.8480 C   0  0  0  0  0
   18.7170   23.5560   20.2800 C   0  0  0  0  0
   19.4420   24.5240   20.9530 C   0  0  0  0  0
   19.3790   22.3660   20.0080 C   0  0  0  0  0
   20.7580   24.3220   21.3220 C   0  0  0  0  0
   20.6770   22.1490   20.3700 C   0  0  0  0  0
   21.3810   23.1260   21.0460 C   0  0  0  0  0
   15.2770   23.5550   16.6270 N   0  3  0  0  0
   14.0450   22.8080   16.3590 C   0  0  0  0  0
   14.1260   21.3670   16.8450 C   0  0  0  0  0
   15.1560   20.6800   16.7900 O   0  0  0  0  0
   13.8730   22.8990   14.8320 C   0  0  0  0  0
   15.1980   23.3040   14.2940 C   0  0  0  0  0
   15.8490   24.0930   15.3870 C   0  0  0  0  0
   12.9810   20.9200   17.3530 N   0  0  0  0  0
   12.9260   19.5250   17.8150 C   0  0  0  0  0
   11.5200   18.9800   17.6690 C   0  0  0  0  0
   10.5420   19.5880   18.1240 O   0  0  0  0  0
   13.4450   19.4620   19.2620 C   0  0  0  0  0
   13.3980   18.1080   19.9700 C   0  0  0  0  0
   12.0490   17.8090   20.6250 C   0  0  0  0  0
   11.3960   18.6950   21.1420 O   0  0  0  0  0
   11.5820   16.5900   20.4980 N   0  0  0  0  0
   11.4120   17.7450   17.1860 N   0  0  0  0  0
   10.1540   16.9930   17.1200 C   0  0  0  0  0
   10.3600   15.5350   17.4940 C   0  0  0  0  0
   11.4950   15.0810   17.5070 O   0  0  0  0  0
    9.5710   17.0270   15.6930 C   0  0  0  0  0
   10.4490   16.3260   14.6680 C   0  0  0  0  0
    9.3030   18.4640   15.2890 C   0  0  0  0  0
    9.8550   16.0270   13.3220 C   0  0  0  0  0
    9.3030   14.7990   17.7870 N   0  0  0  0  0
    9.4120   13.3560   17.9820 C   0  0  0  0  0
    9.4180   12.7160   16.5990 C   0  0  0  0  0
    8.4900   13.0410   15.8630 O   0  0  0  0  0
    8.2340   12.8030   18.7990 C   0  0  0  0  0
    8.3890   13.4380   20.0800 O   0  0  0  0  0
    8.3190   11.2900   18.8960 C   0  0  0  0  0
   10.4330   11.9040   16.3590 N   0  0  0  0  0
   10.6910   11.3120   15.0620 C   0  0  0  0  0
    9.4950   10.4950   14.5750 C   0  0  0  0  0
    9.3430    9.3510   15.0030 O   0  0  0  0  0
   11.9590   10.4660   15.1220 C   0  0  0  0  0
    8.6330   11.0112   13.7036 O   0  0  0  0  0
   30.3648   27.2392   16.2009 H   0  0  0  0  0
   28.8727   27.3373   15.4656 H   0  0  0  0  0
   29.6884   28.7288   15.8841 H   0  0  0  0  0
   28.5077   26.7613   17.7852 H   0  0  0  0  0
   30.7855   28.4960   17.9490 H   0  0  0  0  0
   28.6435   29.1896   19.9078 H   0  0  0  0  0
   30.3677   29.6230   20.0091 H   0  0  0  0  0
   29.3698   30.2468   18.6726 H   0  0  0  0  0
   30.9743   27.1923   20.0842 H   0  0  0  0  0
   29.2501   26.7589   19.9830 H   0  0  0  0  0
   30.4034   26.1071   18.7930 H   0  0  0  0  0
   27.6083   28.6126   15.3823 H   0  0  0  0  0
   25.2374   29.5934   16.7978 H   0  0  0  0  0
   25.8081   28.6495   13.9717 H   0  0  0  0  0
   25.4516   30.3169   14.5614 H   0  0  0  0  0
   23.6842   29.3478   13.4732 H   0  0  0  0  0
   23.9168   28.3693   18.0824 H   0  0  0  0  0
   23.5200   25.5795   17.1549 H   0  0  0  0  0
   22.4127   25.3621   19.5357 H   0  0  0  0  0
   23.4789   26.7830   19.8862 H   0  0  0  0  0
   23.5005   23.2070   18.7725 H   0  0  0  0  0
   25.8137   26.5666   20.0783 H   0  0  0  0  0
   25.4497   21.7238   19.0475 H   0  0  0  0  0
   27.7085   25.0446   20.5407 H   0  0  0  0  0
   27.5893   22.6544   19.9369 H   0  0  0  0  0
   21.3327   24.7796   17.0510 H   0  0  0  0  0
   19.2093   26.8799   16.9427 H   0  0  0  0  0
   18.6306   26.3000   14.5986 H   0  0  0  0  0
   20.0665   25.2968   14.4898 H   0  0  0  0  0
   22.4339   27.9526   14.3072 H   0  0  0  0  0
   22.0895   26.2220   14.2197 H   0  0  0  0  0
   17.4152   22.8279   17.8091 H   0  0  0  0  0
   15.3440   24.8604   18.1661 H   0  0  0  0  0
   15.1468   23.0657   18.5818 H   0  0  0  0  0
   16.6824   22.9695   20.2700 H   0  0  0  0  0
   16.9794   24.7633   20.1970 H   0  0  0  0  0
   18.9618   25.4712   21.1985 H   0  0  0  0  0
   18.8414   21.5748   19.4853 H   0  0  0  0  0
   21.3054   25.1134   21.8340 H   0  0  0  0  0
   21.1590   21.2025   20.1250 H   0  0  0  0  0
   22.4117   22.9531   21.3555 H   0  0  0  0  0
   16.1993   23.3281   16.9988 H   0  0  0  0  0
   13.1900   23.2205   16.8946 H   0  0  0  0  0
   13.1009   23.6201   14.5639 H   0  0  0  0  0
   13.5516   21.9453   14.4134 H   0  0  0  0  0
   15.7977   22.4376   14.0151 H   0  0  0  0  0
   15.0960   23.8929   13.3825 H   0  0  0  0  0
   16.9347   23.9982   15.3655 H   0  0  0  0  0
   15.6621   25.1619   15.2834 H   0  0  0  0  0
   12.1644   21.5274   17.4202 H   0  0  0  0  0
   13.5663   18.8909   17.2017 H   0  0  0  0  0
   12.7906   20.1169   19.8373 H   0  0  0  0  0
   14.5006   19.7279   19.2070 H   0  0  0  0  0
   14.1491   18.1249   20.7597 H   0  0  0  0  0
   13.5749   17.3388   19.2183 H   0  0  0  0  0
   10.6471   16.3641   20.8375 H   0  0  0  0  0
   12.1537   15.8679   20.0597 H   0  0  0  0  0
   12.2577   17.2922   16.8395 H   0  0  0  0  0
    9.4703   17.4656   17.8252 H   0  0  0  0  0
    8.6350   16.4687   15.7109 H   0  0  0  0  0
   10.6845   15.3549   15.1034 H   0  0  0  0  0
   11.2740   17.0118   14.4752 H   0  0  0  0  0
    8.5901   18.9084   15.9836 H   0  0  0  0  0
   10.2359   19.0271   15.3140 H   0  0  0  0  0
    8.8910   18.4856   14.2801 H   0  0  0  0  0
    8.9873   15.3788   13.4451 H   0  0  0  0  0
    9.5495   16.9588   12.8460 H   0  0  0  0  0
   10.5984   15.5271   12.7011 H   0  0  0  0  0
    8.3918   15.2480   17.8789 H   0  0  0  0  0
   10.3229   13.1293   18.5361 H   0  0  0  0  0
    7.2593   13.0072   18.3559 H   0  0  0  0  0
    7.6864   13.1484   20.6666 H   0  0  0  0  0
    8.2890   10.8607   17.8945 H   0  0  0  0  0
    9.2523   11.0104   19.3847 H   0  0  0  0  0
    7.4765   10.9166   19.4781 H   0  0  0  0  0
   11.0674   11.6827   17.1265 H   0  0  0  0  0
   10.8433   12.1123   14.3379 H   0  0  0  0  0
   12.8019   11.0966   15.4047 H   0  0  0  0  0
   11.8317    9.6747   15.8607 H   0  0  0  0  0
   12.1462   10.0243   14.1432 H   0  0  0  0  0
    8.9028   11.9048   13.4794 H   0  0  0  0  0
  2  1  1  0  0  0
  2  5  1  0  0  0
  3  2  1  0  0  0
  3  4  2  0  0  0
  5  7  1  0  0  0
  5  6  1  0  0  0
  9  8  1  0  0  0
  9 12  1  0  0  0
 10  9  1  0  0  0
 10 11  2  0  0  0
 12 13  1  0  0  0
  8  3  1  0  0  0
 15 14  1  0  0  0
 15 18  1  0  0  0
 16 15  1  0  0  0
 16 17  2  0  0  0
 18 19  1  0  0  0
 19 20  4  0  0  0
 19 21  4  0  0  0
 21 23  4  0  0  0
 23 24  4  0  0  0
 22 24  4  0  0  0
 20 22  4  0  0  0
 14 10  1  0  0  0
 26 25  1  0  0  0
 26 29  1  0  0  0
 27 26  1  0  0  0
 27 28  2  0  0  0
 29 30  1  0  0  0
 30 32  1  0  0  0
 30 31  2  0  0  0
 25 16  1  0  0  0
 44 45  1  0  0  0
 44 47  1  0  0  0
 43 44  1  0  0  0
 43 49  1  0  0  0
 49 48  1  0  0  0
 48 47  1  0  0  0
 45 46  2  0  0  0
 50 51  1  0  0  0
 51 54  1  0  0  0
 51 52  1  0  0  0
 52 53  2  0  0  0
 54 55  1  0  0  0
 55 56  1  0  0  0
 56 58  1  0  0  0
 56 57  2  0  0  0
 45 50  1  0  0  0
 59 60  1  0  0  0
 60 63  1  0  0  0
 60 61  1  0  0  0
 61 62  2  0  0  0
 63 65  1  0  0  0
 63 64  1  0  0  0
 64 66  1  0  0  0
 52 59  1  0  0  0
 67 68  1  0  0  0
 68 71  1  0  0  0
 68 69  1  0  0  0
 69 70  2  0  0  0
 71 73  1  0  0  0
 71 72  1  0  0  0
 61 67  1  0  0  0
 74 75  1  0  0  0
 75 78  1  0  0  0
 75 76  1  0  0  0
 76 77  2  0  0  0
 69 74  1  0  0  0
 33 27  2  0  0  0
 34 33  1  0  0  0
 35 34  1  0  0  0
 34 36  1  0  0  0
 35 43  1  0  0  0
 36 37  1  0  0  0
 37 38  4  0  0  0
 37 39  4  0  0  0
 38 40  4  0  0  0
 39 41  4  0  0  0
 40 42  4  0  0  0
 41 42  4  0  0  0
 76 79  1  0  0  0
  1 80  1  0  0  0
  1 81  1  0  0  0
  1 82  1  0  0  0
  2 83  1  0  0  0
  5 84  1  0  0  0
  6 85  1  0  0  0
  6 86  1  0  0  0
  6 87  1  0  0  0
  7 88  1  0  0  0
  7 89  1  0  0  0
  7 90  1  0  0  0
  8 91  1  0  0  0
  9 92  1  0  0  0
 12 93  1  0  0  0
 12 94  1  0  0  0
 13 95  1  0  0  0
 14 96  1  0  0  0
 15 97  1  0  0  0
 18 98  1  0  0  0
 18 99  1  0  0  0
 20100  1  0  0  0
 21101  1  0  0  0
 22102  1  0  0  0
 23103  1  0  0  0
 24104  1  0  0  0
 25105  1  0  0  0
 26106  1  0  0  0
 29107  1  0  0  0
 29108  1  0  0  0
 32109  1  0  0  0
 32110  1  0  0  0
 34111  1  0  0  0
 35112  1  0  0  0
 35113  1  0  0  0
 36114  1  0  0  0
 36115  1  0  0  0
 38116  1  0  0  0
 39117  1  0  0  0
 40118  1  0  0  0
 41119  1  0  0  0
 42120  1  0  0  0
 43121  1  0  0  0
 44122  1  0  0  0
 47123  1  0  0  0
 47124  1  0  0  0
 48125  1  0  0  0
 48126  1  0  0  0
 49127  1  0  0  0
 49128  1  0  0  0
 50129  1  0  0  0
 51130  1  0  0  0
 54131  1  0  0  0
 54132  1  0  0  0
 55133  1  0  0  0
 55134  1  0  0  0
 58135  1  0  0  0
 58136  1  0  0  0
 59137  1  0  0  0
 60138  1  0  0  0
 63139  1  0  0  0
 64140  1  0  0  0
 64141  1  0  0  0
 65142  1  0  0  0
 65143  1  0  0  0
 65144  1  0  0  0
 66145  1  0  0  0
 66146  1  0  0  0
 66147  1  0  0  0
 67148  1  0  0  0
 68149  1  0  0  0
 71150  1  0  0  0
 72151  1  0  0  0
 73152  1  0  0  0
 73153  1  0  0  0
 73154  1  0  0  0
 74155  1  0  0  0
 75156  1  0  0  0
 78157  1  0  0  0
 78158  1  0  0  0
 78159  1  0  0  0
 79160  1  0  0  0
M  END
$$$$
