2cia_ligand
  -I-interpret- 

135136  0  0  0  0  0  0  0  0999 V2000
   19.1590   54.9670   33.2270 C   0  0  0  0  0
   20.1080   55.4830   33.8570 O   0  0  0  0  0
   17.8610   54.7110   33.9580 C   0  0  0  0  0
   19.1880   54.8160   31.8720 N   0  0  0  0  0
   18.1160   54.1300   31.0820 C   0  0  0  0  0
   18.3710   52.6800   30.6330 C   0  0  0  0  0
   19.3430   52.3700   29.9070 O   0  0  0  0  0
   17.7400   54.8710   29.8250 C   0  0  0  0  0
   17.0700   56.1730   30.0680 C   0  0  0  0  0
   16.9320   57.1300   29.0890 N   0  0  0  0  0
   16.5570   56.7060   31.2050 C   0  0  0  0  0
   16.3200   58.1850   29.6070 C   0  0  0  0  0
   16.0910   57.9530   30.8920 N   0  0  0  0  0
   17.4410   51.8190   31.0190 N   0  0  0  0  0
   17.5060   50.3990   30.6870 C   0  0  0  0  0
   16.5410   50.1300   29.5510 C   0  0  0  0  0
   15.3910   50.6220   29.5680 O   0  0  0  0  0
   17.1340   49.5220   31.8980 C   0  0  0  0  0
   17.9420   49.9360   33.1300 C   0  0  0  0  0
   17.3650   48.0500   31.5910 C   0  0  0  0  0
   19.4170   49.9050   32.9110 C   0  0  0  0  0
   16.9950   49.3560   28.5500 N   0  0  0  0  0
   16.1710   49.0120   27.3840 C   0  0  0  0  0
   15.6910   47.5840   27.4500 C   0  0  0  0  0
   16.3520   46.7240   28.0310 O   0  0  0  0  0
   16.8950   49.2620   26.0740 C   0  0  0  0  0
   17.0370   50.7450   25.7500 C   0  0  0  0  0
   18.0650   51.4890   26.3040 C   0  0  0  0  0
   16.1860   51.3830   24.8610 C   0  0  0  0  0
   18.2130   52.8480   26.0090 C   0  0  0  0  0
   16.2950   52.7480   24.5670 C   0  0  0  0  0
   17.3360   53.4760   25.1410 C   0  0  0  0  0
   17.4660   54.7260   24.8150 O   0  0  0  0  0
   16.7340   55.9440   25.5870 P   0  0  0  0  0
   17.6800   56.4960   26.5600 O   0  0  0  0  0
   15.4700   55.3930   26.2170 O   0  0  0  0  0
   16.4230   56.8770   24.4520 O   0  0  0  0  0
   14.5190   47.3480   26.8640 N   0  0  0  0  0
   13.9240   46.0500   26.8130 C   0  0  0  0  0
   14.5580   45.2300   25.7400 C   0  0  0  0  0
   15.0810   45.7530   24.7650 O   0  0  0  0  0
   12.4380   46.2140   26.5540 C   0  0  0  0  0
   11.7440   46.9190   27.6880 C   0  0  0  0  0
   11.4750   46.2500   28.7040 O   0  0  0  0  0
   11.5240   48.1430   27.5470 O   0  0  0  0  0
   14.5090   43.9100   25.9290 N   0  0  0  0  0
   15.1000   42.9640   24.9880 C   0  0  0  0  0
   14.1820   42.7360   23.7960 C   0  0  0  0  0
   13.0400   42.3660   23.9740 O   0  0  0  0  0
   15.3080   41.6460   25.7000 C   0  0  0  0  0
   16.0100   40.6030   24.8680 C   0  0  0  0  0
   16.0890   39.2450   25.5340 C   0  0  0  0  0
   15.2310   38.8980   26.3870 O   0  0  0  0  0
   17.0100   38.5170   25.1660 O   0  0  0  0  0
   14.6350   43.0490   22.5750 N   0  0  0  0  0
   13.8320   42.7570   21.3630 C   0  0  0  0  0
   13.6710   41.2670   21.1430 C   0  0  0  0  0
   14.5920   40.4730   21.4380 O   0  0  0  0  0
   14.4400   43.3120   20.0750 C   0  0  0  0  0
   14.2570   44.7780   20.0260 C   0  0  0  0  0
   15.8740   42.9250   19.9490 C   0  0  0  0  0
   12.5110   40.8540   20.6200 N   0  0  0  0  0
   12.2210   39.4110   20.3640 C   0  0  0  0  0
   13.0120   38.9300   19.2030 C   0  0  0  0  0
   13.1300   39.6420   18.2440 O   0  0  0  0  0
   10.7520   39.2080   20.0270 C   0  0  0  0  0
   13.5360   37.7040   19.2850 N   0  0  0  0  0
   14.2740   37.0880   18.1720 C   0  0  0  0  0
   13.3010   36.4070   17.2150 C   0  0  0  0  0
   12.0890   36.3390   17.4160 O   0  0  0  0  0
   15.2730   36.0940   18.6910 C   0  0  0  0  0
   13.6980   35.9160   16.1850 N   0  0  0  0  0
   18.0428   54.0332   34.7921 H   0  0  0  0  0
   17.4653   55.6543   34.3343 H   0  0  0  0  0
   17.1422   54.2615   33.2729 H   0  0  0  0  0
   19.9888   55.1933   31.3653 H   0  0  0  0  0
   17.3247   54.1204   31.8316 H   0  0  0  0  0
   17.0367   54.2430   29.2780 H   0  0  0  0  0
   18.6633   55.0789   29.2842 H   0  0  0  0  0
   16.5226   56.2295   32.1847 H   0  0  0  0  0
   16.0499   59.0923   29.0667 H   0  0  0  0  0
   16.6517   52.1604   31.5675 H   0  0  0  0  0
   18.5263   50.1492   30.3959 H   0  0  0  0  0
   16.0746   49.6691   32.1081 H   0  0  0  0  0
   17.7136   49.2267   33.9255 H   0  0  0  0  0
   17.6679   50.9628   33.3720 H   0  0  0  0  0
   16.7486   47.7563   30.7414 H   0  0  0  0  0
   18.4163   47.8908   31.3511 H   0  0  0  0  0
   17.0950   47.4519   32.4614 H   0  0  0  0  0
   19.7222   48.8932   32.6442 H   0  0  0  0  0
   19.6776   50.5893   32.1036 H   0  0  0  0  0
   19.9253   50.2100   33.8257 H   0  0  0  0  0
   17.9472   48.9942   28.6023 H   0  0  0  0  0
   15.3041   49.6720   27.4148 H   0  0  0  0  0
   16.3114   48.8010   25.2772 H   0  0  0  0  0
   17.8972   48.8423   26.1615 H   0  0  0  0  0
   18.7705   51.0075   26.9812 H   0  0  0  0  0
   15.4038   50.8014   24.3732 H   0  0  0  0  0
   19.0236   53.4162   26.4652 H   0  0  0  0  0
   15.5795   53.2318   23.9021 H   0  0  0  0  0
   14.8952   55.0483   25.5297 H   0  0  0  0  0
   15.8008   56.4559   23.8544 H   0  0  0  0  0
   14.0240   48.1284   26.4324 H   0  0  0  0  0
   14.0770   45.5324   27.7600 H   0  0  0  0  0
   11.9984   45.2222   26.4486 H   0  0  0  0  0
   12.3128   46.8130   25.6520 H   0  0  0  0  0
   11.8208   48.4223   26.6778 H   0  0  0  0  0
   14.0418   43.5493   26.7609 H   0  0  0  0  0
   16.0454   43.3691   24.6272 H   0  0  0  0  0
   14.3217   41.2527   25.9464 H   0  0  0  0  0
   15.9366   41.8435   26.5683 H   0  0  0  0  0
   17.0317   40.9474   24.7077 H   0  0  0  0  0
   15.4390   40.4819   23.9475 H   0  0  0  0  0
   14.6084   39.6159   26.5234 H   0  0  0  0  0
   15.5469   43.4954   22.4773 H   0  0  0  0  0
   12.8762   43.2431   21.5587 H   0  0  0  0  0
   13.9210   42.8771   19.2208 H   0  0  0  0  0
   13.1925   45.0111   20.0524 H   0  0  0  0  0
   14.7514   45.2335   20.8841 H   0  0  0  0  0
   14.6926   45.1667   19.1055 H   0  0  0  0  0
   16.4318   43.3209   20.7977 H   0  0  0  0  0
   15.9557   41.8382   19.9340 H   0  0  0  0  0
   16.2794   43.3339   19.0235 H   0  0  0  0  0
   11.8003   41.5480   20.3881 H   0  0  0  0  0
   12.4806   38.8590   21.2673 H   0  0  0  0  0
   10.1388   39.5480   20.8615 H   0  0  0  0  0
   10.5028   39.7813   19.1341 H   0  0  0  0  0
   10.5652   38.1497   19.8447 H   0  0  0  0  0
   13.4202   37.1764   20.1502 H   0  0  0  0  0
   14.8115   37.8689   17.6341 H   0  0  0  0  0
   15.9796   36.6005   19.3485 H   0  0  0  0  0
   14.7525   35.3141   19.2468 H   0  0  0  0  0
   15.8094   35.6486   17.8531 H   0  0  0  0  0
   13.0388   35.4782   15.5414 H   0  0  0  0  0
   14.6924   35.9393   15.9590 H   0  0  0  0  0
  1  2  2  0  0  0
  1  3  1  0  0  0
  1  4  1  0  0  0
  4  5  1  0  0  0
  5  6  1  0  0  0
  5  8  1  0  0  0
  6  7  2  0  0  0
  6 14  1  0  0  0
  8  9  1  0  0  0
  9 10  4  0  0  0
  9 11  4  0  0  0
 10 12  4  0  0  0
 11 13  4  0  0  0
 12 13  4  0  0  0
 14 15  1  0  0  0
 15 16  1  0  0  0
 15 18  1  0  0  0
 16 17  2  0  0  0
 16 22  1  0  0  0
 18 19  1  0  0  0
 18 20  1  0  0  0
 19 21  1  0  0  0
 22 23  1  0  0  0
 23 24  1  0  0  0
 23 26  1  0  0  0
 24 25  2  0  0  0
 24 38  1  0  0  0
 26 27  1  0  0  0
 27 28  4  0  0  0
 27 29  4  0  0  0
 28 30  4  0  0  0
 29 31  4  0  0  0
 30 32  4  0  0  0
 31 32  4  0  0  0
 32 33  1  0  0  0
 33 34  1  0  0  0
 34 35  2  0  0  0
 34 36  1  0  0  0
 34 37  1  0  0  0
 38 39  1  0  0  0
 39 40  1  0  0  0
 39 42  1  0  0  0
 40 41  2  0  0  0
 40 46  1  0  0  0
 42 43  1  0  0  0
 43 44  2  0  0  0
 43 45  1  0  0  0
 46 47  1  0  0  0
 47 48  1  0  0  0
 47 50  1  0  0  0
 48 49  2  0  0  0
 48 55  1  0  0  0
 50 51  1  0  0  0
 51 52  1  0  0  0
 52 53  1  0  0  0
 52 54  2  0  0  0
 55 56  1  0  0  0
 56 57  1  0  0  0
 56 59  1  0  0  0
 57 58  2  0  0  0
 57 62  1  0  0  0
 59 60  1  0  0  0
 59 61  1  0  0  0
 62 63  1  0  0  0
 63 64  1  0  0  0
 63 66  1  0  0  0
 64 65  2  0  0  0
 64 67  1  0  0  0
 67 68  1  0  0  0
 68 69  1  0  0  0
 68 71  1  0  0  0
 69 70  2  0  0  0
 69 72  1  0  0  0
  3 73  1  0  0  0
  3 74  1  0  0  0
  3 75  1  0  0  0
  4 76  1  0  0  0
  5 77  1  0  0  0
  8 78  1  0  0  0
  8 79  1  0  0  0
 11 80  1  0  0  0
 12 81  1  0  0  0
 14 82  1  0  0  0
 15 83  1  0  0  0
 18 84  1  0  0  0
 19 85  1  0  0  0
 19 86  1  0  0  0
 20 87  1  0  0  0
 20 88  1  0  0  0
 20 89  1  0  0  0
 21 90  1  0  0  0
 21 91  1  0  0  0
 21 92  1  0  0  0
 22 93  1  0  0  0
 23 94  1  0  0  0
 26 95  1  0  0  0
 26 96  1  0  0  0
 28 97  1  0  0  0
 29 98  1  0  0  0
 30 99  1  0  0  0
 31100  1  0  0  0
 36101  1  0  0  0
 37102  1  0  0  0
 38103  1  0  0  0
 39104  1  0  0  0
 42105  1  0  0  0
 42106  1  0  0  0
 45107  1  0  0  0
 46108  1  0  0  0
 47109  1  0  0  0
 50110  1  0  0  0
 50111  1  0  0  0
 51112  1  0  0  0
 51113  1  0  0  0
 53114  1  0  0  0
 55115  1  0  0  0
 56116  1  0  0  0
 59117  1  0  0  0
 60118  1  0  0  0
 60119  1  0  0  0
 60120  1  0  0  0
 61121  1  0  0  0
 61122  1  0  0  0
 61123  1  0  0  0
 62124  1  0  0  0
 63125  1  0  0  0
 66126  1  0  0  0
 66127  1  0  0  0
 66128  1  0  0  0
 67129  1  0  0  0
 68130  1  0  0  0
 71131  1  0  0  0
 71132  1  0  0  0
 71133  1  0  0  0
 72134  1  0  0  0
 72135  1  0  0  0
M  END
$$$$
