2foy_ligand
  -I-interpret- 

 42 43  0  0  0  0  0  0  0  0999 V2000
  -16.5550   -1.0480  -20.3290 S   0  0  0  0  0
  -17.3230   -2.0080  -21.0810 O   0  0  0  0  0
  -16.3250    0.2510  -20.9150 O   0  0  0  0  0
  -15.1600   -1.7030  -19.8890 N   0  0  0  0  0
  -19.0180   -0.3910  -16.4290 C   0  0  0  0  0
  -18.3790   -1.6310  -16.7190 C   0  0  0  0  0
  -17.6310   -1.8080  -17.9040 C   0  0  0  0  0
  -17.4960   -0.7670  -18.8320 C   0  0  0  0  0
  -18.1280    0.4660  -18.5390 C   0  0  0  0  0
  -18.8790    0.6570  -17.3570 C   0  0  0  0  0
  -19.8390   -0.2230  -15.1610 C   0  0  0  0  0
  -20.7770    0.6140  -15.2110 O   0  0  0  0  0
  -19.5370   -0.9790  -14.1000 N   0  0  0  0  0
  -20.2760   -0.9660  -12.7750 C   0  0  0  0  0
  -19.9160    0.2470  -11.8240 C   0  0  0  0  0
  -18.5810    0.4710  -11.2790 N   0  3  0  0  0
  -17.7600    1.5830  -11.6930 C   0  0  0  0  0
  -17.2960    1.5220  -13.1150 C   0  0  0  0  0
  -17.2780    2.5660  -13.7590 O   0  0  0  0  0
  -16.9540    0.4080  -13.5460 Du  0  0  0  0  0
  -17.9850   -0.2620  -10.1470 C   0  0  0  0  0
  -18.3790   -1.7140  -10.1300 C   0  0  0  0  0
  -18.0640   -2.4040  -11.1050 O   0  0  0  0  0
  -19.0010   -2.1630   -9.1580 O   0  0  0  0  0
  -17.1040   -1.0600  -12.2630 Cu  0  0  0  0  0
  -14.9424   -2.6642  -20.1520 H   0  0  0  0  0
  -14.4897   -1.1587  -19.3460 H   0  0  0  0  0
  -18.4690   -2.4575  -16.0141 H   0  0  0  0  0
  -17.1522   -2.7676  -18.0992 H   0  0  0  0  0
  -18.0326    1.2910  -19.2450 H   0  0  0  0  0
  -19.3521    1.6198  -17.1638 H   0  0  0  0  0
  -18.7455   -1.6162  -14.1888 H   0  0  0  0  0
  -19.9930   -1.8764  -12.2466 H   0  0  0  0  0
  -21.3378   -0.8816  -13.0064 H   0  0  0  0  0
  -20.5135    0.0470  -10.9346 H   0  0  0  0  0
  -20.0677    1.1150  -12.4656 H   0  0  0  0  0
  -18.9286   -0.2437  -11.9183 H   0  0  0  0  0
  -16.8678    1.5692  -11.0671 H   0  0  0  0  0
  -18.3699    2.4812  -11.5963 H   0  0  0  0  0
  -18.3432    0.1947   -9.2244 H   0  0  0  0  0
  -16.9007   -0.2087  -10.2451 H   0  0  0  0  0
  -19.1408   -1.4618   -8.5174 H   0  0  0  0  0
  1  2  2  0  0  0
  1  3  2  0  0  0
  1  4  1  0  0  0
  8  1  1  0  0  0
  6  5  4  0  0  0
  5 10  4  0  0  0
  5 11  1  0  0  0
  7  6  4  0  0  0
  8  7  4  0  0  0
  8  9  4  0  0  0
  9 10  4  0  0  0
 11 12  2  0  0  0
 11 13  1  0  0  0
 13 14  1  0  0  0
 14 15  1  0  0  0
 15 16  1  0  0  0
 16 17  1  0  0  0
 16 21  1  0  0  0
 17 18  1  0  0  0
 18 19  2  0  0  0
 18 20  1  0  0  0
 21 22  1  0  0  0
 22 23  2  0  0  0
 22 24  1  0  0  0
 20 25  1  0  0  0
 23 25  1  0  0  0
  4 26  1  0  0  0
  4 27  1  0  0  0
  6 28  1  0  0  0
  7 29  1  0  0  0
  9 30  1  0  0  0
 10 31  1  0  0  0
 13 32  1  0  0  0
 14 33  1  0  0  0
 14 34  1  0  0  0
 15 35  1  0  0  0
 15 36  1  0  0  0
 16 37  1  0  0  0
 17 38  1  0  0  0
 17 39  1  0  0  0
 21 40  1  0  0  0
 21 41  1  0  0  0
 24 42  1  0  0  0
M  END
$$$$
