2gv2_ligand
  -I-interpret- 

155159  0  0  0  0  0  0  0  0999 V2000
   14.8600   22.4250   12.0340 C   0  0  0  0  0
   14.6390   21.4690   12.7740 O   0  0  0  0  0
   16.1580   23.2190   12.1550 C   0  0  0  0  0
   14.0130   22.8210   11.0860 N   0  0  0  0  0
   12.7340   22.1560   10.8740 C   0  0  0  0  0
   12.8490   20.6570   10.5980 C   0  0  0  0  0
   12.2110   19.8520   11.2710 O   0  0  0  0  0
   11.9720   22.8150    9.7230 C   0  0  0  0  0
   10.6890   22.1160    9.3780 C   0  0  0  0  0
    9.5740   22.2300   10.2040 C   0  0  0  0  0
   10.6120   21.3000    8.2550 C   0  0  0  0  0
    8.3980   21.5340    9.9160 C   0  0  0  0  0
    9.4420   20.6020    7.9560 C   0  0  0  0  0
    8.3350   20.7200    8.7910 C   0  0  0  0  0
   13.6490   20.2830    9.6020 N   0  0  0  0  0
   13.8150   18.8730    9.2530 C   0  0  0  0  0
   14.1790   18.0170   10.4620 C   0  0  0  0  0
   13.6310   16.9270   10.6510 O   0  0  0  0  0
   14.8910   18.7170    8.1730 C   0  0  0  0  0
   14.4930   19.2590    6.8130 C   0  0  0  0  0
   13.1420   18.3300    6.0570 S   0  0  0  0  0
   14.0420   16.9580    5.3170 C   0  0  0  0  0
   15.1030   18.5190   11.2770 N   0  0  0  0  0
   15.5570   17.8170   12.4780 C   0  0  0  0  0
   14.3600   17.5040   13.3780 C   0  0  0  0  0
   14.2110   16.3790   13.8600 O   0  0  0  0  0
   16.5490   18.6910   13.2280 C   0  0  0  0  0
   16.2540   16.5220   12.0820 C   0  0  0  0  0
   13.5150   18.5020   13.6140 N   0  0  0  0  0
   12.3310   18.3170   14.4450 C   0  0  0  0  0
   11.6150   19.6540   14.6600 C   0  0  0  0  0
   12.3320   20.6210   15.5680 C   0  0  0  0  0
   12.6570   21.9050   15.1320 C   0  0  0  0  0
   13.2700   22.8190   15.9860 C   0  0  0  0  0
   12.6410   20.2700   16.8780 C   0  0  0  0  0
   13.2560   21.1710   17.7380 C   0  0  0  0  0
   13.5650   22.4420   17.2880 C   0  0  0  0  0
   14.2340   23.4200   18.2220 C   0  0  0  0  0
   16.0110   23.5050   18.2080 P   0  0  0  0  0
   16.4760   22.1290   18.5200 O   0  0  0  0  0
   16.3530   23.9430   16.8330 O   0  0  0  0  0
   16.3740   24.4980   19.2460 O   0  0  0  0  0
   11.3520   17.3570   13.7800 C   0  0  0  0  0
   10.8180   16.4470   14.4100 O   0  0  0  0  0
   11.1140   17.5860   12.4950 N   0  0  0  0  0
   10.1760   16.7800   11.7290 C   0  0  0  0  0
   10.0930   17.3310   10.3030 C   0  0  0  0  0
    8.9420   16.8030    9.5300 C   0  0  0  0  0
    7.5690   17.1660    9.6950 C   0  0  0  0  0
    6.8930   18.0570   10.5410 C   0  0  0  0  0
    6.8240   16.4160    8.7580 C   0  0  0  0  0
    7.7100   15.6340    8.0620 N   0  0  0  0  0
    8.9770   15.8700    8.5300 C   0  0  0  0  0
    5.4320   16.5250    8.6460 C   0  0  0  0  0
    4.7950   17.4050    9.4860 C   0  0  0  0  0
    3.0730   17.5770    9.3880 Cl  0  0  0  0  0
    5.5130   18.1670   10.4290 C   0  0  0  0  0
   10.5310   15.2960   11.7060 C   0  0  0  0  0
    9.6480   14.4400   11.7030 O   0  0  0  0  0
   11.8230   14.9940   11.6930 N   0  0  0  0  0
   12.2760   13.6100   11.6690 C   0  0  0  0  0
   11.8090   12.8790   12.9210 C   0  0  0  0  0
   11.5960   11.6670   12.9010 O   0  0  0  0  0
   13.8040   13.5570   11.5860 C   0  0  0  0  0
   14.3680   12.1540   11.4040 C   0  0  0  0  0
   15.8810   12.1120   11.5300 C   0  0  0  0  0
   16.5620   12.9050   10.8470 O   0  0  0  0  0
   16.3900   11.2810   12.3110 O   0  0  0  0  0
   12.2830   12.4400   16.1620 C   0  0  0  0  0
   11.6660   13.7550   16.5410 C   0  0  0  0  0
   11.2180   13.0530   15.2780 C   0  0  0  0  0
    9.8320   12.4250   15.2380 C   0  0  0  0  0
    9.4820   11.6370   16.1140 O   0  0  0  0  0
   11.6480   13.6250   14.0080 N   0  0  0  0  0
    9.0410   12.7680   14.2270 N   0  0  0  0  0
    7.7010   12.2070   14.1180 C   0  0  0  0  0
    7.7440   10.7250   13.7770 C   0  0  0  0  0
    8.6780   10.3060   13.0600 O   0  0  0  0  0
    6.8940   12.9420   13.0490 C   0  0  0  0  0
    6.4410   14.3620   13.3910 C   0  0  0  0  0
    5.7630   14.9790   12.1780 C   0  0  0  0  0
    5.4880   14.3260   14.5790 C   0  0  0  0  0
    6.8230   10.0090   14.2200 O   0  0  0  0  0
   16.2295   23.6457   13.1555 H   0  0  0  0  0
   17.0055   22.5563   11.9798 H   0  0  0  0  0
   16.1627   24.0200   11.4158 H   0  0  0  0  0
   14.2662   23.6109   10.4924 H   0  0  0  0  0
   12.1917   22.2674   11.8129 H   0  0  0  0  0
   12.6127   22.7784    8.8419 H   0  0  0  0  0
   11.7198   23.8287   10.0344 H   0  0  0  0  0
    9.6195   22.8697   11.0854 H   0  0  0  0  0
   11.4776   21.2044    7.5994 H   0  0  0  0  0
    7.5322   21.6288   10.5714 H   0  0  0  0  0
    9.3949   19.9665    7.0717 H   0  0  0  0  0
    7.4192   20.1745    8.5630 H   0  0  0  0  0
   14.1553   20.9929    9.0728 H   0  0  0  0  0
   12.8548   18.5231    8.8740 H   0  0  0  0  0
   15.0721   17.6489    8.0523 H   0  0  0  0  0
   15.7612   19.2847    8.5026 H   0  0  0  0  0
   15.3596   19.1816    6.1564 H   0  0  0  0  0
   14.1561   20.2867    6.9490 H   0  0  0  0  0
   14.7622   17.3444    4.5959 H   0  0  0  0  0
   14.5670   16.4067    6.0971 H   0  0  0  0  0
   13.3398   16.2950    4.8115 H   0  0  0  0  0
   15.5104   19.4277   11.0563 H   0  0  0  0  0
   17.4029   18.9034   12.5847 H   0  0  0  0  0
   16.0654   19.6255   13.5124 H   0  0  0  0  0
   16.8876   18.1686   14.1228 H   0  0  0  0  0
   15.5566   15.8884   11.5339 H   0  0  0  0  0
   17.1121   16.7513   11.4502 H   0  0  0  0  0
   16.5903   16.0028   12.9794 H   0  0  0  0  0
   13.6986   19.4181   13.2047 H   0  0  0  0  0
   12.6599   17.9089   15.4007 H   0  0  0  0  0
   10.6595   19.4272   15.1330 H   0  0  0  0  0
   11.5427   20.1332   13.6837 H   0  0  0  0  0
   12.4279   22.1980   14.1074 H   0  0  0  0  0
   13.5156   23.8211   15.6345 H   0  0  0  0  0
   12.3962   19.2701   17.2361 H   0  0  0  0  0
   13.4935   20.8784   18.7608 H   0  0  0  0  0
   13.9680   23.0896   19.2261 H   0  0  0  0  0
   13.8946   24.4049   17.9013 H   0  0  0  0  0
   16.2115   21.5352   17.8136 H   0  0  0  0  0
   16.0952   23.2615   16.2079 H   0  0  0  0  0
   11.6036   18.3505   12.0300 H   0  0  0  0  0
    9.2070   16.8489   12.2233 H   0  0  0  0  0
   11.0024   17.0306    9.7825 H   0  0  0  0  0
    9.9702   18.4116   10.3762 H   0  0  0  0  0
    7.4401   18.6518   11.2724 H   0  0  0  0  0
    9.8802   15.3851    8.1595 H   0  0  0  0  0
    4.8752   15.9334    7.9193 H   0  0  0  0  0
    4.9760   18.8549   11.0821 H   0  0  0  0  0
   12.5124   15.7458   11.7000 H   0  0  0  0  0
   11.8506   13.1226   10.7917 H   0  0  0  0  0
   14.1919   13.9408   12.5295 H   0  0  0  0  0
   14.1002   14.1395   10.7136 H   0  0  0  0  0
   14.1052   11.8141   10.4022 H   0  0  0  0  0
   13.9486   11.5199   12.1851 H   0  0  0  0  0
   15.6939   10.7733   12.7344 H   0  0  0  0  0
   12.5037   11.4788   16.6261 H   0  0  0  0  0
   13.2772   12.0050   16.0592 H   0  0  0  0  0
   11.9905   14.7487   16.8499 H   0  0  0  0  0
   11.2163   14.2219   17.4173 H   0  0  0  0  0
   11.8305   14.6270   13.9526 H   0  0  0  0  0
    9.3737   13.4275   13.5236 H   0  0  0  0  0
    7.2209   12.3305   15.0888 H   0  0  0  0  0
    9.2640   11.0344   12.8419 H   0  0  0  0  0
    5.9829   12.3610   12.9063 H   0  0  0  0  0
    7.5523   13.0353   12.1852 H   0  0  0  0  0
    7.3044   14.9705   13.6601 H   0  0  0  0  0
    6.4671   15.0102   11.3465 H   0  0  0  0  0
    4.8981   14.3762   11.9010 H   0  0  0  0  0
    5.4394   15.9913   12.4200 H   0  0  0  0  0
    4.6179   13.7198   14.3269 H   0  0  0  0  0
    5.9979   13.8921   15.4392 H   0  0  0  0  0
    5.1687   15.3404   14.8179 H   0  0  0  0  0
  1  2  2  0  0  0
  1  3  1  0  0  0
  4  1  1  0  0  0
  5  4  1  0  0  0
  6  5  1  0  0  0
  5  8  1  0  0  0
  6  7  2  0  0  0
 15  6  1  0  0  0
  8  9  1  0  0  0
  9 10  4  0  0  0
  9 11  4  0  0  0
 10 12  4  0  0  0
 11 13  4  0  0  0
 12 14  4  0  0  0
 13 14  4  0  0  0
 16 15  1  0  0  0
 17 16  1  0  0  0
 16 19  1  0  0  0
 17 18  2  0  0  0
 23 17  1  0  0  0
 19 20  1  0  0  0
 20 21  1  0  0  0
 21 22  1  0  0  0
 24 23  1  0  0  0
 25 24  1  0  0  0
 24 27  1  0  0  0
 24 28  1  0  0  0
 25 26  2  0  0  0
 29 25  1  0  0  0
 30 29  1  0  0  0
 30 31  1  0  0  0
 43 30  1  0  0  0
 31 32  1  0  0  0
 32 33  4  0  0  0
 32 35  4  0  0  0
 33 34  4  0  0  0
 34 37  4  0  0  0
 35 36  4  0  0  0
 36 37  4  0  0  0
 37 38  1  0  0  0
 38 39  1  0  0  0
 39 40  1  0  0  0
 39 41  1  0  0  0
 39 42  2  0  0  0
 43 44  2  0  0  0
 45 43  1  0  0  0
 46 45  1  0  0  0
 46 47  1  0  0  0
 58 46  1  0  0  0
 47 48  1  0  0  0
 48 49  4  0  0  0
 48 53  4  0  0  0
 49 50  4  0  0  0
 49 51  4  0  0  0
 50 57  4  0  0  0
 52 51  4  0  0  0
 51 54  4  0  0  0
 53 52  4  0  0  0
 54 55  4  0  0  0
 55 56  1  0  0  0
 57 55  4  0  0  0
 58 59  2  0  0  0
 60 58  1  0  0  0
 61 60  1  0  0  0
 62 61  1  0  0  0
 61 64  1  0  0  0
 62 63  2  0  0  0
 74 62  1  0  0  0
 64 65  1  0  0  0
 65 66  1  0  0  0
 66 67  2  0  0  0
 66 68  1  0  0  0
 70 69  1  0  0  0
 71 69  1  0  0  0
 71 70  1  0  0  0
 71 72  1  0  0  0
 71 74  1  0  0  0
 72 73  2  0  0  0
 72 75  1  0  0  0
 75 76  1  0  0  0
 76 77  1  0  0  0
 76 79  1  0  0  0
 77 78  1  0  0  0
 77 83  2  0  0  0
 79 80  1  0  0  0
 80 81  1  0  0  0
 80 82  1  0  0  0
  3 84  1  0  0  0
  3 85  1  0  0  0
  3 86  1  0  0  0
  4 87  1  0  0  0
  5 88  1  0  0  0
  8 89  1  0  0  0
  8 90  1  0  0  0
 10 91  1  0  0  0
 11 92  1  0  0  0
 12 93  1  0  0  0
 13 94  1  0  0  0
 14 95  1  0  0  0
 15 96  1  0  0  0
 16 97  1  0  0  0
 19 98  1  0  0  0
 19 99  1  0  0  0
 20100  1  0  0  0
 20101  1  0  0  0
 22102  1  0  0  0
 22103  1  0  0  0
 22104  1  0  0  0
 23105  1  0  0  0
 27106  1  0  0  0
 27107  1  0  0  0
 27108  1  0  0  0
 28109  1  0  0  0
 28110  1  0  0  0
 28111  1  0  0  0
 29112  1  0  0  0
 30113  1  0  0  0
 31114  1  0  0  0
 31115  1  0  0  0
 33116  1  0  0  0
 34117  1  0  0  0
 35118  1  0  0  0
 36119  1  0  0  0
 38120  1  0  0  0
 38121  1  0  0  0
 40122  1  0  0  0
 41123  1  0  0  0
 45124  1  0  0  0
 46125  1  0  0  0
 47126  1  0  0  0
 47127  1  0  0  0
 50128  1  0  0  0
 53129  1  0  0  0
 54130  1  0  0  0
 57131  1  0  0  0
 60132  1  0  0  0
 61133  1  0  0  0
 64134  1  0  0  0
 64135  1  0  0  0
 65136  1  0  0  0
 65137  1  0  0  0
 68138  1  0  0  0
 69139  1  0  0  0
 69140  1  0  0  0
 70141  1  0  0  0
 70142  1  0  0  0
 74143  1  0  0  0
 75144  1  0  0  0
 76145  1  0  0  0
 78146  1  0  0  0
 79147  1  0  0  0
 79148  1  0  0  0
 80149  1  0  0  0
 81150  1  0  0  0
 81151  1  0  0  0
 81152  1  0  0  0
 82153  1  0  0  0
 82154  1  0  0  0
 82155  1  0  0  0
M  END
$$$$
