2h5e_ligand
  -I-interpret- 

 42 44  0  0  0  0  0  0  0  0999 V2000
   -2.7820   26.7130   -1.1860 P   0  0  0  0  0
   -3.3700   27.0580   -2.5000 O   0  0  0  0  0
   -1.3040   27.1470   -1.2220 O   0  0  0  0  0
   -3.5770   27.4540   -0.1000 O   0  0  0  0  0
   -2.8600   25.1090   -0.9010 O   0  0  0  0  0
   -4.0550   24.4740   -0.0380 P   0  0  0  0  0
   -3.7760   24.7030    1.3680 O   0  0  0  0  0
   -5.4060   25.0860   -0.4390 O   0  0  0  0  0
   -4.0010   22.8880   -0.3750 O   0  0  0  0  0
   -4.0840   22.4540   -1.7170 C   0  0  0  0  0
   -4.4940   20.9950   -1.7760 C   0  0  0  0  0
   -3.4500   20.2000   -1.2400 O   0  0  0  0  0
   -5.7690   20.7260   -0.9770 C   0  0  0  0  0
   -6.6490   19.8210   -1.6720 O   0  0  0  0  0
   -5.2060   20.1780    0.3280 C   0  0  0  0  0
   -6.0890   19.2670    0.9340 O   0  0  0  0  0
   -3.9140   19.4990   -0.1070 C   0  0  0  0  0
   -2.8080   19.5120    0.8710 N   0  0  0  0  0
   -2.3000   20.5980    1.5410 C   0  0  0  0  0
   -1.2640   20.1830    2.3140 N   0  0  0  0  0
   -1.0970   18.8560    2.1260 C   0  0  0  0  0
   -0.2040   17.9320    2.6700 C   0  0  0  0  0
    0.3240   18.1490    3.7660 O   0  0  0  0  0
   -0.3060   16.6150    2.2770 N   0  0  0  0  0
   -1.2610   16.2130    1.3570 C   0  0  0  0  0
   -1.4080   14.9170    1.1090 N   0  0  0  0  0
   -2.1440   17.1250    0.8280 N   0  0  0  0  0
   -2.0600   18.4210    1.2140 C   0  0  0  0  0
   -0.8895   26.9373   -0.3818 H   0  0  0  0  0
   -3.2113   27.2437    0.7623 H   0  0  0  0  0
   -5.5666   24.9212   -1.3710 H   0  0  0  0  0
   -3.1077   22.5679   -2.1881 H   0  0  0  0  0
   -4.8297   23.0538   -2.2388 H   0  0  0  0  0
   -4.6858   20.7450   -2.8195 H   0  0  0  0  0
   -6.4051   21.5967   -0.8179 H   0  0  0  0  0
   -7.4373   19.6743   -1.1440 H   0  0  0  0  0
   -5.0485   20.9525    1.0786 H   0  0  0  0  0
   -5.7023   18.9435    1.7510 H   0  0  0  0  0
   -4.1670   18.4509   -0.2667 H   0  0  0  0  0
   -2.6671   21.6215    1.4649 H   0  0  0  0  0
   -0.8230   14.2356    1.5926 H   0  0  0  0  0
   -2.8516   16.8301    0.1551 H   0  0  0  0  0
  1  2  2  0  0  0
  1  3  1  0  0  0
  1  4  1  0  0  0
  1  5  1  0  0  0
  5  6  1  0  0  0
  6  7  2  0  0  0
  6  8  1  0  0  0
  6  9  1  0  0  0
  9 10  1  0  0  0
 10 11  1  0  0  0
 11 12  1  0  0  0
 11 13  1  0  0  0
 12 17  1  0  0  0
 13 14  1  0  0  0
 13 15  1  0  0  0
 15 16  1  0  0  0
 15 17  1  0  0  0
 17 18  1  0  0  0
 18 19  4  0  0  0
 18 28  4  0  0  0
 19 20  4  0  0  0
 20 21  4  0  0  0
 21 22  1  0  0  0
 21 28  4  0  0  0
 22 23  2  0  0  0
 22 24  1  0  0  0
 24 25  4  0  0  0
 25 26  2  0  0  0
 25 27  1  0  0  0
 27 28  1  0  0  0
  3 29  1  0  0  0
  4 30  1  0  0  0
  8 31  1  0  0  0
 10 32  1  0  0  0
 10 33  1  0  0  0
 11 34  1  0  0  0
 13 35  1  0  0  0
 14 36  1  0  0  0
 15 37  1  0  0  0
 16 38  1  0  0  0
 17 39  1  0  0  0
 19 40  1  0  0  0
 26 41  1  0  0  0
 27 42  1  0  0  0
M  END
$$$$
