2oc2_ligand
  -I-interpret- 

 79 83  0  0  0  0  0  0  0  0999 V2000
   40.0740   32.4240   42.9350 O   0  0  0  0  0
   39.5550   33.4210   42.3900 C   0  0  0  0  0
   38.4630   33.3360   41.7840 O   0  0  0  0  0
   40.2560   34.7630   42.4700 C   0  0  0  0  0
   40.8310   35.1960   41.1110 C   0  0  0  0  0
   41.9690   34.3460   40.5830 C   0  0  0  0  0
   43.3300   34.5100   40.8240 C   0  0  0  0  0
   44.0110   35.4510   41.6050 C   0  0  0  0  0
   45.4050   35.3830   41.6830 C   0  0  0  0  0
   46.1080   34.3930   40.9930 C   0  0  0  0  0
   45.4220   33.4540   40.2130 C   0  0  0  0  0
   44.0180   33.5140   40.1240 C   0  0  0  0  0
   43.0970   32.7650   39.4650 N   0  0  0  0  0
   41.8570   33.2560   39.7270 C   0  0  0  0  0
   41.3740   34.7650   43.4050 N   0  0  0  0  0
   41.2400   34.6760   44.7290 C   0  0  0  0  0
   40.1570   34.6020   45.3170 O   0  0  0  0  0
   42.5570   34.6710   45.4650 C   0  0  0  0  0
   43.3230   33.3780   45.2020 C   0  0  0  0  0
   43.2460   32.5270   46.4710 C   0  0  0  0  0
   42.6010   33.3530   47.5870 C   0  0  0  0  0
   42.4550   34.7110   46.9620 C   0  0  0  0  0
   42.3530   36.1880   47.8360 P   0  0  0  0  0
   42.0020   37.2800   46.8420 O   0  0  0  0  0
   43.7220   36.3490   48.4290 O   0  0  0  0  0
   41.1440   36.3800   49.0670 C   0  0  0  0  0
   39.8850   35.5280   49.1810 C   0  0  0  0  0
   38.9570   35.8690   50.3430 C   0  0  0  0  0
   38.6770   34.8970   51.3110 C   0  0  0  0  0
   37.8310   35.1820   52.3910 C   0  0  0  0  0
   37.2480   36.4490   52.5120 C   0  0  0  0  0
   37.5200   37.4270   51.5510 C   0  0  0  0  0
   38.3610   37.1320   50.4720 C   0  0  0  0  0
   41.2760   37.4440   49.8650 N   0  0  0  0  0
   42.1820   37.6730   50.8170 C   0  0  0  0  0
   43.0560   36.8970   51.1570 O   0  0  0  0  0
   42.1130   38.9410   51.5090 O   0  0  0  0  0
   43.2880   39.6800   51.8350 C   0  0  0  0  0
   42.9220   41.1120   52.1770 C   0  0  0  0  0
   42.8590   42.0810   51.1760 C   0  0  0  0  0
   42.6460   41.4700   53.5030 C   0  0  0  0  0
   42.3130   42.7880   53.8300 C   0  0  0  0  0
   42.2510   43.7540   52.8300 C   0  0  0  0  0
   42.5270   43.3980   51.5040 C   0  0  0  0  0
   38.2248   34.1975   41.4338 H   0  0  0  0  0
   39.4806   35.4510   42.8070 H   0  0  0  0  0
   41.2321   36.2000   41.2495 H   0  0  0  0  0
   40.0189   35.1103   40.3890 H   0  0  0  0  0
   43.4632   36.2242   42.1436 H   0  0  0  0  0
   45.9482   36.1092   42.2878 H   0  0  0  0  0
   47.1950   34.3511   41.0619 H   0  0  0  0  0
   45.9721   32.6804   39.6773 H   0  0  0  0  0
   40.9232   32.8585   39.3293 H   0  0  0  0  0
   42.3170   34.8390   43.0233 H   0  0  0  0  0
   43.0415   35.5737   45.0928 H   0  0  0  0  0
   44.3616   33.5958   44.9532 H   0  0  0  0  0
   42.8865   32.8428   44.3587 H   0  0  0  0  0
   44.2489   32.2234   46.7712 H   0  0  0  0  0
   42.6475   31.6362   46.2803 H   0  0  0  0  0
   43.1981   33.3699   48.4987 H   0  0  0  0  0
   41.6506   32.9387   47.9234 H   0  0  0  0  0
   41.6709   35.2419   47.5019 H   0  0  0  0  0
   41.1194   37.1257   46.4972 H   0  0  0  0  0
   41.3910   35.3615   49.3665 H   0  0  0  0  0
   40.2198   34.5036   49.3442 H   0  0  0  0  0
   39.3130   35.6996   48.2691 H   0  0  0  0  0
   39.1227   33.9062   51.2234 H   0  0  0  0  0
   37.6264   34.4156   53.1385 H   0  0  0  0  0
   36.5867   36.6713   53.3495 H   0  0  0  0  0
   37.0773   38.4189   51.6420 H   0  0  0  0  0
   38.5560   37.8962   49.7196 H   0  0  0  0  0
   40.5880   38.1842   49.7268 H   0  0  0  0  0
   43.9626   39.6770   50.9789 H   0  0  0  0  0
   43.7746   39.2191   52.6946 H   0  0  0  0  0
   43.0682   41.8117   50.1407 H   0  0  0  0  0
   42.6913   40.7141   54.2870 H   0  0  0  0  0
   42.1026   43.0581   54.8648 H   0  0  0  0  0
   41.9889   44.7826   53.0777 H   0  0  0  0  0
   42.4824   44.1549   50.7210 H   0  0  0  0  0
  1  2  2  0  0  0
  2  3  1  0  0  0
  2  4  1  0  0  0
  4  5  1  0  0  0
  4 15  1  0  0  0
  5  6  1  0  0  0
  6  7  4  0  0  0
  6 14  4  0  0  0
  7  8  4  0  0  0
  7 12  4  0  0  0
  8  9  4  0  0  0
  9 10  4  0  0  0
 10 11  4  0  0  0
 11 12  4  0  0  0
 12 13  4  0  0  0
 13 14  4  0  0  0
 15 16  1  0  0  0
 16 17  2  0  0  0
 16 18  1  0  0  0
 18 19  1  0  0  0
 18 22  1  0  0  0
 19 20  1  0  0  0
 20 21  1  0  0  0
 21 22  1  0  0  0
 22 23  1  0  0  0
 23 24  1  0  0  0
 23 25  2  0  0  0
 23 26  1  0  0  0
 26 27  1  0  0  0
 26 34  1  0  0  0
 27 28  1  0  0  0
 28 29  4  0  0  0
 28 33  4  0  0  0
 29 30  4  0  0  0
 30 31  4  0  0  0
 31 32  4  0  0  0
 32 33  4  0  0  0
 34 35  1  0  0  0
 35 36  2  0  0  0
 35 37  1  0  0  0
 37 38  1  0  0  0
 38 39  1  0  0  0
 39 40  4  0  0  0
 39 41  4  0  0  0
 40 44  4  0  0  0
 41 42  4  0  0  0
 42 43  4  0  0  0
 43 44  4  0  0  0
  3 45  1  0  0  0
  4 46  1  0  0  0
  5 47  1  0  0  0
  5 48  1  0  0  0
  8 49  1  0  0  0
  9 50  1  0  0  0
 10 51  1  0  0  0
 11 52  1  0  0  0
 14 53  1  0  0  0
 15 54  1  0  0  0
 18 55  1  0  0  0
 19 56  1  0  0  0
 19 57  1  0  0  0
 20 58  1  0  0  0
 20 59  1  0  0  0
 21 60  1  0  0  0
 21 61  1  0  0  0
 22 62  1  0  0  0
 24 63  1  0  0  0
 26 64  1  0  0  0
 27 65  1  0  0  0
 27 66  1  0  0  0
 29 67  1  0  0  0
 30 68  1  0  0  0
 31 69  1  0  0  0
 32 70  1  0  0  0
 33 71  1  0  0  0
 34 72  1  0  0  0
 38 73  1  0  0  0
 38 74  1  0  0  0
 40 75  1  0  0  0
 41 76  1  0  0  0
 42 77  1  0  0  0
 43 78  1  0  0  0
 44 79  1  0  0  0
M  END
$$$$
