2ovz_ligand
  -I-interpret- 

 68 72  0  0  0  0  0  0  0  0999 V2000
   24.8640   14.9380   50.1610 C   0  0  0  0  0
   25.3170   15.8600   51.0970 C   0  0  0  0  0
   25.8660   17.0680   50.6680 C   0  0  0  0  0
   25.9610   17.3470   49.3080 C   0  0  0  0  0
   25.5090   16.4210   48.3720 C   0  0  0  0  0
   24.9590   15.2150   48.8010 C   0  0  0  0  0
   24.4550   14.1740   48.1460 N   0  0  0  0  0
   24.0470   13.2560   49.0210 C   0  0  0  0  0
   24.2790   13.6780   50.2620 C   0  0  0  0  0
   23.9680   12.9050   51.5470 C   0  0  0  0  0
   25.1260   11.9860   51.9460 C   0  0  0  0  0
   24.6980   11.1230   53.1400 C   0  0  0  0  0
   24.0170   10.1140   53.0010 O   0  0  0  0  0
   25.1040   11.5820   54.3230 N   0  0  0  0  0
   25.4950   11.1720   50.7790 N   0  0  0  0  0
   26.7560   10.9980   50.3860 C   0  0  0  0  0
   27.7310   11.4560   50.9820 O   0  0  0  0  0
   26.9160   10.1820   49.1010 C   0  0  0  0  0
   27.2610   11.1590   47.9730 C   0  0  0  0  0
   27.1230   10.3890   46.3420 P   0  0  0  0  0
   28.3410    9.3390   46.3070 O   0  0  0  0  0
   25.8380    9.6590   46.2860 O   0  0  0  0  0
   27.4560   11.6440   45.0910 C   0  0  0  0  0
   28.6420   11.6070   44.3660 C   0  0  0  0  0
   28.8810   12.5520   43.3700 C   0  0  0  0  0
   27.9330   13.5330   43.1030 C   0  0  0  0  0
   26.7450   13.5720   43.8310 C   0  0  0  0  0
   26.5070   12.6290   44.8240 C   0  0  0  0  0
   28.0330    9.1410   49.2180 C   0  0  0  0  0
   27.6920    7.9160   50.0690 C   0  0  0  0  0
   26.5380    7.2650   50.2060 C   0  0  0  0  0
   28.6550    7.2280   50.7460 O   0  0  0  0  0
   28.0070    6.1080   51.3010 N   0  0  0  0  0
   26.7270    6.1760   50.9480 C   0  0  0  0  0
   25.7640    5.2260   51.2870 C   0  0  0  0  0
   24.4790    5.2940   50.7550 C   0  0  0  0  0
   23.5300    4.3300   51.0800 C   0  0  0  0  0
   23.8630    3.2900   51.9420 C   0  0  0  0  0
   25.1460    3.2200   52.4760 C   0  0  0  0  0
   26.0940    4.1870   52.1490 C   0  0  0  0  0
   25.2435   15.6399   52.1620 H   0  0  0  0  0
   26.2211   17.7945   51.3988 H   0  0  0  0  0
   26.3900   18.2921   48.9751 H   0  0  0  0  0
   25.5852   16.6388   47.3067 H   0  0  0  0  0
   23.5909   12.3011   48.7596 H   0  0  0  0  0
   23.0845   12.2905   51.3741 H   0  0  0  0  0
   23.8059   13.6235   52.3505 H   0  0  0  0  0
   25.9995   12.5609   52.2537 H   0  0  0  0  0
   24.8488   11.0864   55.1772 H   0  0  0  0  0
   25.6700   12.4290   54.3745 H   0  0  0  0  0
   24.7520   10.7200   50.2460 H   0  0  0  0  0
   25.9876    9.6456   48.9050 H   0  0  0  0  0
   28.2919   11.4858   48.1091 H   0  0  0  0  0
   26.5588   11.9915   48.0170 H   0  0  0  0  0
   29.1737    9.8153   46.3435 H   0  0  0  0  0
   29.3854   10.8382   44.5769 H   0  0  0  0  0
   29.8102   12.5219   42.8010 H   0  0  0  0  0
   28.1188   14.2722   42.3238 H   0  0  0  0  0
   26.0026   14.3421   43.6216 H   0  0  0  0  0
   25.5783   12.6599   45.3938 H   0  0  0  0  0
   28.8739    9.6362   49.7036 H   0  0  0  0  0
   28.2301    8.7775   48.2095 H   0  0  0  0  0
   25.5856    7.5760   49.7767 H   0  0  0  0  0
   24.2149    6.1077   50.0796 H   0  0  0  0  0
   22.5261    4.3895   50.6595 H   0  0  0  0  0
   23.1217    2.5330   52.1980 H   0  0  0  0  0
   25.4099    2.4066   53.1518 H   0  0  0  0  0
   27.0975    4.1285   52.5705 H   0  0  0  0  0
  1  2  4  0  0  0
  1  6  4  0  0  0
  1  9  4  0  0  0
  2  3  4  0  0  0
  3  4  4  0  0  0
  4  5  4  0  0  0
  5  6  4  0  0  0
  6  7  4  0  0  0
  7  8  4  0  0  0
  8  9  4  0  0  0
  9 10  1  0  0  0
 10 11  1  0  0  0
 11 12  1  0  0  0
 11 15  1  0  0  0
 12 13  2  0  0  0
 12 14  1  0  0  0
 15 16  1  0  0  0
 16 17  2  0  0  0
 16 18  1  0  0  0
 18 19  1  0  0  0
 18 29  1  0  0  0
 19 20  1  0  0  0
 20 21  1  0  0  0
 20 22  2  0  0  0
 20 23  1  0  0  0
 23 24  4  0  0  0
 23 28  4  0  0  0
 24 25  4  0  0  0
 25 26  4  0  0  0
 26 27  4  0  0  0
 27 28  4  0  0  0
 29 30  1  0  0  0
 30 31  4  0  0  0
 30 32  4  0  0  0
 31 34  4  0  0  0
 32 33  4  0  0  0
 33 34  4  0  0  0
 34 35  1  0  0  0
 35 36  4  0  0  0
 35 40  4  0  0  0
 36 37  4  0  0  0
 37 38  4  0  0  0
 38 39  4  0  0  0
 39 40  4  0  0  0
  2 41  1  0  0  0
  3 42  1  0  0  0
  4 43  1  0  0  0
  5 44  1  0  0  0
  8 45  1  0  0  0
 10 46  1  0  0  0
 10 47  1  0  0  0
 11 48  1  0  0  0
 14 49  1  0  0  0
 14 50  1  0  0  0
 15 51  1  0  0  0
 18 52  1  0  0  0
 19 53  1  0  0  0
 19 54  1  0  0  0
 21 55  1  0  0  0
 24 56  1  0  0  0
 25 57  1  0  0  0
 26 58  1  0  0  0
 27 59  1  0  0  0
 28 60  1  0  0  0
 29 61  1  0  0  0
 29 62  1  0  0  0
 31 63  1  0  0  0
 36 64  1  0  0  0
 37 65  1  0  0  0
 38 66  1  0  0  0
 39 67  1  0  0  0
 40 68  1  0  0  0
M  END
$$$$
