2r75_ligand
  -I-interpret- 

 60 63  0  0  0  0  0  0  0  0999 V2000
   -8.7420   -2.9100   14.4070 C   0  0  0  0  0
  -10.1330   -3.4170   14.2970 C   0  0  0  0  0
  -11.0180   -2.8970   15.2630 O   0  0  0  0  0
  -10.6170   -3.2660   16.5870 C   0  0  0  0  0
   -9.1580   -2.8950   16.8610 C   0  0  0  0  0
   -8.2380   -3.1480   15.7120 N   0  0  0  0  0
   -6.9450   -3.0570   15.9020 C   0  0  0  0  0
   -6.5290   -1.9910   16.5820 N   0  0  0  0  0
   -5.1900   -2.1140   16.6650 C   0  0  0  0  0
   -4.2130   -1.3620   17.2930 C   0  0  0  0  0
   -4.4360   -0.2520   17.8500 O   0  0  0  0  0
   -2.9550   -1.8310   17.2080 N   0  0  0  0  0
   -2.6160   -2.9620   16.6030 C   0  0  0  0  0
   -1.3080   -3.2890   16.5960 N   0  0  0  0  0
   -3.5150   -3.7180   16.0080 N   0  0  0  0  0
   -4.8060   -3.2990   16.0490 C   0  0  0  0  0
   -5.8980   -3.8800   15.5480 N   0  0  0  0  0
   -5.8650   -5.1340   14.8810 C   0  0  0  0  0
   -5.8630   -4.8270   13.4070 O   0  0  0  0  0
   -6.9730   -6.1220   15.0740 C   0  0  0  0  0
   -6.4190   -7.3450   15.5850 O   0  0  0  0  0
   -7.6420   -6.2630   13.6860 C   0  0  0  0  0
   -8.1590   -7.5510   13.4660 O   0  0  0  0  0
   -6.5570   -5.9440   12.7390 C   0  0  0  0  0
   -7.0540   -5.4070   11.3880 C   0  0  0  0  0
   -7.8640   -4.2970   11.5770 O   0  0  0  0  0
   -7.4970   -2.9230   10.9000 P   0  0  0  0  0
   -8.2600   -1.8470   11.6100 O   0  0  0  0  0
   -6.0250   -2.7410   10.8090 O   0  0  0  0  0
   -8.1130   -3.0840    9.4210 O   0  0  0  0  0
   -7.5550   -2.3550    8.1180 P   0  0  0  0  0
   -7.4880   -0.8890    8.3640 O   0  0  0  0  0
   -6.2950   -2.9790    7.6660 O   0  0  0  0  0
   -8.6860   -2.6920    7.0830 O   0  0  0  0  0
  -10.0510   -1.8660    6.5280 P   0  0  0  0  0
  -10.4190   -0.9860    7.7760 O   0  0  0  0  0
   -9.5680   -0.9810    5.3150 O   0  0  0  0  0
  -10.9480   -2.9910    6.1810 O   0  0  0  0  0
   -8.7355   -1.8378   14.2111 H   0  0  0  0  0
   -8.1143   -3.4272   13.6813 H   0  0  0  0  0
  -10.0938   -4.4961   14.4458 H   0  0  0  0  0
  -10.5091   -3.1123   13.3204 H   0  0  0  0  0
  -10.7214   -4.3462   16.6888 H   0  0  0  0  0
  -11.2466   -2.7310   17.2980 H   0  0  0  0  0
   -8.8175   -3.5162   17.6894 H   0  0  0  0  0
   -9.1306   -1.8249   17.0663 H   0  0  0  0  0
   -0.6267   -2.6761   17.0439 H   0  0  0  0  0
   -3.2524   -4.5830   15.5356 H   0  0  0  0  0
   -4.9931   -5.6221   15.3165 H   0  0  0  0  0
   -7.7251   -5.8156   15.8010 H   0  0  0  0  0
   -7.1229   -7.9853   15.7121 H   0  0  0  0  0
   -8.5051   -5.6058   13.5797 H   0  0  0  0  0
   -8.5620   -7.5884   12.5955 H   0  0  0  0  0
   -5.9679   -6.8354   12.5232 H   0  0  0  0  0
   -7.6296   -6.1852   10.8868 H   0  0  0  0  0
   -6.1945   -5.1201   10.7822 H   0  0  0  0  0
   -9.1948   -2.0656   11.6095 H   0  0  0  0  0
   -8.3479   -0.5744    8.6524 H   0  0  0  0  0
   -9.7589   -0.2978    7.8867 H   0  0  0  0  0
   -8.9947   -0.2822    5.6385 H   0  0  0  0  0
  1  2  1  0  0  0
  1  6  1  0  0  0
  2  3  1  0  0  0
  3  4  1  0  0  0
  4  5  1  0  0  0
  5  6  1  0  0  0
  6  7  1  0  0  0
  7  8  4  0  0  0
  7 17  4  0  0  0
  8  9  4  0  0  0
  9 10  1  0  0  0
  9 16  4  0  0  0
 10 11  2  0  0  0
 10 12  1  0  0  0
 12 13  4  0  0  0
 13 14  2  0  0  0
 13 15  1  0  0  0
 15 16  1  0  0  0
 16 17  4  0  0  0
 17 18  1  0  0  0
 18 19  1  0  0  0
 18 20  1  0  0  0
 19 24  1  0  0  0
 20 21  1  0  0  0
 20 22  1  0  0  0
 22 23  1  0  0  0
 22 24  1  0  0  0
 24 25  1  0  0  0
 25 26  1  0  0  0
 26 27  1  0  0  0
 27 28  1  0  0  0
 27 29  2  0  0  0
 27 30  1  0  0  0
 30 31  1  0  0  0
 31 32  1  0  0  0
 31 33  2  0  0  0
 31 34  1  0  0  0
 34 35  1  0  0  0
 35 36  1  0  0  0
 35 37  1  0  0  0
 35 38  2  0  0  0
  1 39  1  0  0  0
  1 40  1  0  0  0
  2 41  1  0  0  0
  2 42  1  0  0  0
  4 43  1  0  0  0
  4 44  1  0  0  0
  5 45  1  0  0  0
  5 46  1  0  0  0
 14 47  1  0  0  0
 15 48  1  0  0  0
 18 49  1  0  0  0
 20 50  1  0  0  0
 21 51  1  0  0  0
 22 52  1  0  0  0
 23 53  1  0  0  0
 24 54  1  0  0  0
 25 55  1  0  0  0
 25 56  1  0  0  0
 28 57  1  0  0  0
 32 58  1  0  0  0
 36 59  1  0  0  0
 37 60  1  0  0  0
M  END
$$$$
