2rok_ligand
  -I-interpret- 

 83 88  0  0  0  0  0  0  0  0999 V2000
   -9.7030   -3.2220   11.6400 P   0  0  0  0  0
  -10.8260   -2.3110   11.9650 O   0  0  0  0  0
   -9.5420   -3.6660   10.2340 O   0  0  0  0  0
   -8.3300   -2.5090   12.0950 O   0  0  0  0  0
   -7.0740   -3.1550   11.9540 C   0  0  0  0  0
   -5.8940   -2.2410   12.3250 C   0  0  0  0  0
   -5.7720   -1.1240   11.4600 O   0  0  0  0  0
   -5.9510   -1.6800   13.7530 C   0  0  0  0  0
   -5.4970   -2.5880   14.7560 O   0  0  0  0  0
   -5.0330   -0.4550   13.6240 C   0  0  0  0  0
   -3.6480   -0.7940   13.7150 O   0  0  0  0  0
   -5.3400    0.0130   12.1970 C   0  0  0  0  0
   -6.4370    1.0040   12.1260 N   0  0  0  0  0
   -7.7940    0.7580   12.1650 C   0  0  0  0  0
   -8.4800    1.9280   11.7730 N   0  3  0  0  0
   -7.5020    2.8630   11.5790 C   0  0  0  0  0
   -7.6080    4.1980   11.1560 C   0  0  0  0  0
   -8.6070    4.8220   10.8320 O   0  0  0  0  0
   -6.4220    4.8360   11.1060 N   0  0  0  0  0
   -5.2730    4.2450   11.3500 C   0  0  0  0  0
   -4.2610    5.0170   11.2160 N   0  0  0  0  0
   -5.0900    3.0070   11.7380 N   0  0  0  0  0
   -6.2670    2.3410   11.8250 C   0  0  0  0  0
   -9.9720    1.9390   11.6380 C   0  0  0  0  0
  -10.2780   -4.7520   13.9580 P   0  0  0  0  0
   -9.4520   -5.8960   14.4250 O   0  0  0  0  0
  -11.7530   -4.9360   13.8850 O   0  0  0  0  0
   -9.8160   -4.5290   12.4870 O   0  0  0  0  0
   -9.9270   -3.4670   14.7260 O   0  0  0  0  0
   -9.8110   -3.4180   16.2620 P   0  0  0  0  0
   -8.3950   -3.6340   16.6670 O   0  0  0  0  0
  -10.8750   -4.2050   16.9470 O   0  0  0  0  0
  -10.1410   -1.8660   16.6000 O   0  0  0  0  0
   -9.5580   -0.7830   15.8750 C   0  0  0  0  0
   -8.1270   -0.4400   16.3240 C   0  0  0  0  0
   -7.6250    0.5600   15.4400 O   0  0  0  0  0
   -8.0690    0.1220   17.7550 C   0  0  0  0  0
   -6.8360   -0.2270   18.3920 O   0  0  0  0  0
   -8.1410    1.6290   17.4780 C   0  0  0  0  0
   -7.6120    2.4260   18.5340 O   0  0  0  0  0
   -7.3230    1.7250   16.1880 C   0  0  0  0  0
   -7.6380    2.9380   15.4040 N   0  0  0  0  0
   -8.8580    3.3660   14.9480 C   0  0  0  0  0
   -8.8390    4.5540   14.3960 N   0  0  0  0  0
   -7.4900    4.9330   14.4700 C   0  0  0  0  0
   -6.7950    6.1190   14.0290 C   0  0  0  0  0
   -7.2430    7.1380   13.5010 O   0  0  0  0  0
   -5.4270    6.0560   14.2190 N   0  0  0  0  0
   -4.7940    4.9990   14.7840 C   0  0  0  0  0
   -3.4930    5.0550   14.8520 N   0  0  0  0  0
   -5.3960    3.9030   15.2390 N   0  0  0  0  0
   -6.7480    3.9240   15.0490 C   0  0  0  0  0
   -8.7811   -4.2476   10.1684 H   0  0  0  0  0
   -6.9600   -3.4424   10.9088 H   0  0  0  0  0
   -7.0597   -4.0115   12.6280 H   0  0  0  0  0
   -5.0369   -2.9078   12.2309 H   0  0  0  0  0
   -6.9663   -1.4624   14.0846 H   0  0  0  0  0
   -6.0966   -3.3362   14.8037 H   0  0  0  0  0
   -5.2055    0.2784   14.4117 H   0  0  0  0  0
   -3.1185    0.0021   13.6289 H   0  0  0  0  0
   -4.4354    0.4791   11.8064 H   0  0  0  0  0
   -8.0896    0.4777   13.1760 H   0  0  0  0  0
   -8.0408   -0.0594   11.4875 H   0  0  0  0  0
   -9.3139    2.4854   11.5879 H   0  0  0  0  0
   -8.2617    3.6320   11.4390 H   0  0  0  0  0
   -6.4153    5.8275   10.8668 H   0  0  0  0  0
   -4.3949    5.9907   10.9433 H   0  0  0  0  0
  -10.2733    1.2052   10.8905 H   0  0  0  0  0
  -10.4242    1.6887   12.5977 H   0  0  0  0  0
  -10.3002    2.9311   11.3280 H   0  0  0  0  0
  -12.1603   -4.1255   13.5705 H   0  0  0  0  0
  -11.7317   -3.9640   16.5870 H   0  0  0  0  0
  -10.1755    0.0978   16.0510 H   0  0  0  0  0
   -9.5092   -1.0800   14.8274 H   0  0  0  0  0
   -7.5392   -1.3577   16.3040 H   0  0  0  0  0
   -8.8467   -0.2516   18.4212 H   0  0  0  0  0
   -6.8233    0.1339   19.2815 H   0  0  0  0  0
   -9.1575    2.0135   17.3939 H   0  0  0  0  0
   -7.6859    3.3543   18.3007 H   0  0  0  0  0
   -6.2617    1.7961   16.4259 H   0  0  0  0  0
   -9.7657    2.7692   15.0371 H   0  0  0  0  0
   -2.9979    5.8695   14.4888 H   0  0  0  0  0
   -4.9003    3.1296   15.6824 H   0  0  0  0  0
  1  2  2  0  0  0
  1  3  1  0  0  0
  1  4  1  0  0  0
 28  1  1  0  0  0
  4  5  1  0  0  0
  5  6  1  0  0  0
  6  7  1  0  0  0
  6  8  1  0  0  0
  7 12  1  0  0  0
  8  9  1  0  0  0
  8 10  1  0  0  0
 10 11  1  0  0  0
 10 12  1  0  0  0
 12 13  1  0  0  0
 13 14  1  0  0  0
 13 23  1  0  0  0
 14 15  1  0  0  0
 16 15  1  0  0  0
 15 24  1  0  0  0
 16 17  1  0  0  0
 23 16  1  0  0  0
 17 18  2  0  0  0
 17 19  1  0  0  0
 20 19  1  0  0  0
 20 21  2  0  0  0
 22 20  1  0  0  0
 23 22  2  0  0  0
 25 26  2  0  0  0
 25 27  1  0  0  0
 25 28  1  0  0  0
 25 29  1  0  0  0
 29 30  1  0  0  0
 30 31  2  0  0  0
 30 32  1  0  0  0
 30 33  1  0  0  0
 33 34  1  0  0  0
 34 35  1  0  0  0
 35 36  1  0  0  0
 35 37  1  0  0  0
 36 41  1  0  0  0
 37 38  1  0  0  0
 37 39  1  0  0  0
 39 40  1  0  0  0
 39 41  1  0  0  0
 41 42  1  0  0  0
 42 43  4  0  0  0
 42 52  4  0  0  0
 43 44  4  0  0  0
 44 45  4  0  0  0
 45 46  1  0  0  0
 45 52  4  0  0  0
 46 47  2  0  0  0
 46 48  1  0  0  0
 48 49  4  0  0  0
 49 50  2  0  0  0
 49 51  1  0  0  0
 51 52  1  0  0  0
  3 53  1  0  0  0
  5 54  1  0  0  0
  5 55  1  0  0  0
  6 56  1  0  0  0
  8 57  1  0  0  0
  9 58  1  0  0  0
 10 59  1  0  0  0
 11 60  1  0  0  0
 12 61  1  0  0  0
 14 62  1  0  0  0
 14 63  1  0  0  0
 15 64  1  0  0  0
 16 65  1  0  0  0
 19 66  1  0  0  0
 21 67  1  0  0  0
 24 68  1  0  0  0
 24 69  1  0  0  0
 24 70  1  0  0  0
 27 71  1  0  0  0
 32 72  1  0  0  0
 34 73  1  0  0  0
 34 74  1  0  0  0
 35 75  1  0  0  0
 37 76  1  0  0  0
 38 77  1  0  0  0
 39 78  1  0  0  0
 40 79  1  0  0  0
 41 80  1  0  0  0
 43 81  1  0  0  0
 50 82  1  0  0  0
 51 83  1  0  0  0
M  END
$$$$
