2wfg_ligand
  -I-interpret- 

 56 61  0  0  0  0  0  0  0  0999 V2000
   16.5290    0.3930   10.0710 C   0  0  0  0  0
   17.3600   -0.6000    9.7110 C   0  0  0  0  0
   17.6880   -1.1150    8.4580 C   0  0  0  0  0
   17.9580   -1.1370   10.8470 C   0  0  0  0  0
   18.6050   -2.1580    8.3420 C   0  0  0  0  0
   18.8740   -2.1870   10.7510 C   0  0  0  0  0
   19.2040   -2.7010    9.4910 C   0  0  0  0  0
   21.2340   -2.2680   17.6250 P   0  0  0  0  0
   21.1570   -3.7520   18.2580 O   0  5  0  0  0
   22.3950   -2.3180   16.4720 O   0  5  0  0  0
   21.4450   -1.1850   18.6260 O   0  0  0  0  0
   15.9490   -1.1840   16.4910 N   0  0  0  0  0
   15.8480    0.0170   17.0550 C   0  0  0  0  0
   15.1670   -0.0840   18.1880 N   0  0  0  0  0
   14.8480   -1.3640   18.3530 C   0  0  0  0  0
   14.1500   -2.0420   19.3430 C   0  0  0  0  0
   13.6500   -1.3800   20.3920 N   0  0  0  0  0
   13.9850   -3.3640   19.2240 N   0  0  0  0  0
   14.4840   -4.0210   18.1850 C   0  0  0  0  0
   15.1590   -3.4010   17.2230 N   0  0  0  0  0
   15.3560   -2.0750   17.2770 C   0  0  0  0  0
   19.8740   -2.0450   16.8070 O   0  0  0  0  0
   19.6730   -0.8740   15.9850 C   0  0  0  0  0
   18.7800   -1.2800   14.8180 C   0  0  0  0  0
   17.7340   -2.2360   15.2590 O   0  0  0  0  0
   18.0240   -0.0760   14.2320 C   0  0  0  0  0
   18.4050    0.1880   12.8890 O   0  0  0  0  0
   16.5850   -0.5660   14.1260 C   0  0  0  0  0
   16.5960   -1.2490   12.8750 O   0  0  0  0  0
   16.6090   -1.4530   15.3570 C   0  0  0  0  0
   18.8950   -2.6410    7.1060 F   0  0  0  0  0
   16.5100    0.5970   11.4270 O   0  0  0  0  0
   17.3710   -0.3700   12.0360 B   0  0  0  0  0
   21.8910   -5.2430    9.8930 C   0  0  0  0  0
   20.7440   -4.3900   10.4740 C   0  0  0  0  0
   20.0760   -3.7120    9.3460 N   0  0  0  0  0
   15.5116    0.1395    9.7383 H   0  0  0  0  0
   16.8550    1.3214    9.5793 H   0  0  0  0  0
   17.2270   -0.7017    7.5682 H   0  0  0  0  0
   19.3260   -2.6009   11.6451 H   0  0  0  0  0
   16.2606    0.9394   16.6490 H   0  0  0  0  0
   13.1330   -1.8888   21.1233 H   0  0  0  0  0
   13.7819   -0.3614   20.4686 H   0  0  0  0  0
   14.3370   -5.0930   18.1191 H   0  0  0  0  0
   20.6400   -0.5091   15.6085 H   0  0  0  0  0
   19.1858   -0.0820   16.5726 H   0  0  0  0  0
   19.4049   -1.7412   14.0390 H   0  0  0  0  0
   18.1321    0.8172   14.8649 H   0  0  0  0  0
   15.8053    0.2088   14.1676 H   0  0  0  0  0
   15.8809   -2.2029   15.0142 H   0  0  0  0  0
   22.4112   -5.7635   10.7106 H   0  0  0  0  0
   22.6009   -4.5909    9.3632 H   0  0  0  0  0
   21.4786   -5.9828    9.1912 H   0  0  0  0  0
   21.1488   -3.6437   11.1735 H   0  0  0  0  0
   20.0265   -5.0357   11.0014 H   0  0  0  0  0
   20.2913   -4.0332    8.3913 H   0  0  0  0  0
  2  1  1  0  0  0
 32  1  1  0  0  0
  3  2  4  0  0  0
  4  2  4  0  0  0
  5  3  4  0  0  0
  6  4  4  0  0  0
  4 33  1  0  0  0
  7  5  4  0  0  0
  5 31  1  0  0  0
  7  6  4  0  0  0
 36  7  1  0  0  0
  8  9  1  0  0  0
  8 10  1  0  0  0
  8 11  2  0  0  0
 22  8  1  0  0  0
 12 13  1  0  0  0
 12 21  1  0  0  0
 30 12  1  0  0  0
 13 14  2  0  0  0
 15 14  1  0  0  0
 15 16  4  0  0  0
 21 15  4  0  0  0
 16 17  1  0  0  0
 16 18  4  0  0  0
 19 18  4  0  0  0
 20 19  4  0  0  0
 21 20  4  0  0  0
 23 22  1  0  0  0
 24 23  1  0  0  0
 25 24  1  0  0  0
 26 24  1  0  0  0
 30 25  1  0  0  0
 26 27  1  0  0  0
 28 26  1  0  0  0
 29 28  1  0  0  0
 28 30  1  0  0  0
 33 29  1  0  0  0
 33 32  1  0  0  0
 35 34  1  0  0  0
 35 36  1  0  0  0
  1 37  1  0  0  0
  1 38  1  0  0  0
  3 39  1  0  0  0
 27 33  1  0  0  0
  6 40  1  0  0  0
 13 41  1  0  0  0
 17 42  1  0  0  0
 17 43  1  0  0  0
 19 44  1  0  0  0
 23 45  1  0  0  0
 23 46  1  0  0  0
 24 47  1  0  0  0
 26 48  1  0  0  0
 28 49  1  0  0  0
 30 50  1  0  0  0
 34 51  1  0  0  0
 34 52  1  0  0  0
 34 53  1  0  0  0
 35 54  1  0  0  0
 35 55  1  0  0  0
 36 56  1  0  0  0
M  END
$$$$
