2wib_ligand
  -I-interpret- 

 42 44  0  0  0  0  0  0  0  0999 V2000
   18.0860   36.7840   24.1840 P   0  0  0  0  0
   16.6710   36.2760   24.3100 O   0  0  0  0  0
   19.0520   36.1660   23.4010 O   0  0  0  0  0
   18.7950   36.6610   25.6610 O   0  0  0  0  0
   18.1930   38.2210   23.5360 O   0  0  0  0  0
   16.8310   39.1450   23.4980 P   0  0  0  0  0
   15.6470   38.7140   22.6230 O   0  0  0  0  0
   16.4410   39.3640   25.0690 O   0  0  0  0  0
   17.2800   40.5940   22.9490 O   0  0  0  0  0
   18.6090   41.0420   23.1870 C   0  0  0  0  0
   18.6320   42.6120   22.9490 C   0  0  0  0  0
   18.7630   42.6020   21.4960 O   0  0  0  0  0
   17.2270   43.1230   23.2760 C   0  0  0  0  0
   17.2920   44.5000   23.6890 O   0  0  0  0  0
   16.5480   43.0810   21.9710 C   0  0  0  0  0
   15.6950   44.2020   21.9130 O   0  0  0  0  0
   17.6270   43.2970   20.9760 C   0  0  0  0  0
   17.4570   42.7070   19.6970 N   0  0  0  0  0
   16.9540   41.5060   19.3530 C   0  0  0  0  0
   17.0600   41.4070   17.9400 N   0  0  0  0  0
   17.5730   42.5030   17.4060 C   0  0  0  0  0
   17.8640   42.9250   16.0750 C   0  0  0  0  0
   17.6360   42.2090   15.0530 O   0  0  0  0  0
   18.5310   44.2080   15.9590 N   0  0  0  0  0
   18.7620   45.0130   17.1000 C   0  0  0  0  0
   19.2790   46.2570   17.0290 N   0  0  0  0  0
   18.4110   44.5180   18.3200 N   0  0  0  0  0
   17.8460   43.3210   18.5210 C   0  0  0  0  0
   16.1767   36.8517   24.8981 H   0  0  0  0  0
   18.2242   37.0583   26.3228 H   0  0  0  0  0
   17.2230   39.6313   25.5574 H   0  0  0  0  0
   19.3061   40.5437   22.5133 H   0  0  0  0  0
   18.9145   40.8060   24.2064 H   0  0  0  0  0
   19.3704   43.1916   23.5031 H   0  0  0  0  0
   16.7410   42.5473   24.0637 H   0  0  0  0  0
   16.4079   44.8140   23.8924 H   0  0  0  0  0
   15.9923   42.1582   21.8045 H   0  0  0  0  0
   15.2330   44.2079   21.0715 H   0  0  0  0  0
   17.6812   44.3770   20.8390 H   0  0  0  0  0
   16.5446   40.7549   20.0285 H   0  0  0  0  0
   19.5224   46.6572   16.1229 H   0  0  0  0  0
   18.5914   45.1004   19.1377 H   0  0  0  0  0
  1  2  1  0  0  0
  1  3  2  0  0  0
  1  4  1  0  0  0
  1  5  1  0  0  0
  5  6  1  0  0  0
  6  7  2  0  0  0
  6  8  1  0  0  0
  6  9  1  0  0  0
  9 10  1  0  0  0
 10 11  1  0  0  0
 11 12  1  0  0  0
 11 13  1  0  0  0
 12 17  1  0  0  0
 13 14  1  0  0  0
 13 15  1  0  0  0
 15 16  1  0  0  0
 15 17  1  0  0  0
 17 18  1  0  0  0
 18 19  4  0  0  0
 18 28  4  0  0  0
 19 20  4  0  0  0
 20 21  4  0  0  0
 21 22  1  0  0  0
 21 28  4  0  0  0
 22 23  2  0  0  0
 22 24  1  0  0  0
 24 25  4  0  0  0
 25 26  2  0  0  0
 25 27  1  0  0  0
 27 28  1  0  0  0
  2 29  1  0  0  0
  4 30  1  0  0  0
  8 31  1  0  0  0
 10 32  1  0  0  0
 10 33  1  0  0  0
 11 34  1  0  0  0
 13 35  1  0  0  0
 14 36  1  0  0  0
 15 37  1  0  0  0
 16 38  1  0  0  0
 17 39  1  0  0  0
 19 40  1  0  0  0
 26 41  1  0  0  0
 27 42  1  0  0  0
M  END
$$$$
