2wic_ligand
  -I-interpret- 

 48 50  0  0  0  0  0  0  0  0999 V2000
   26.8810    9.2710   65.0420 P   0  0  0  0  0
   27.1890    9.3910   63.5410 O   0  0  0  0  0
   27.8640    8.2290   65.4990 O   0  0  0  0  0
   26.7770   10.7360   65.7860 O   0  0  0  0  0
   25.3620    8.6570   65.1780 N   0  0  0  0  0
   25.0810    6.9590   65.3600 P   0  0  0  0  0
   26.0220    6.0530   66.0080 O   0  0  0  0  0
   24.3520    6.7760   63.8660 O   0  0  0  0  0
   23.6700    6.9760   66.2460 O   0  0  0  0  0
   23.2780    6.4800   67.7580 P   0  0  0  0  0
   23.3910    5.0290   67.9630 O   0  0  0  0  0
   24.3170    7.3300   68.5610 O   0  0  0  0  0
   21.8580    6.9670   67.8040 O   0  0  0  0  0
   21.3590    8.3320   67.8000 C   0  0  0  0  0
   20.1590    8.2480   68.6850 C   0  0  0  0  0
   19.0170    7.4680   68.0190 O   0  0  0  0  0
   20.3220    7.5780   70.0600 C   0  0  0  0  0
   19.6590    8.3010   71.1450 O   0  0  0  0  0
   19.4920    6.3100   69.9630 C   0  0  0  0  0
   18.8810    6.0970   71.1840 O   0  0  0  0  0
   18.3590    6.6520   68.8860 C   0  0  0  0  0
   18.0420    5.4760   68.0700 N   0  0  0  0  0
   18.8830    4.6250   67.4520 C   0  0  0  0  0
   18.1600    3.6290   66.8530 N   0  0  0  0  0
   16.8650    3.8630   67.0760 C   0  0  0  0  0
   15.6730    3.3700   66.6040 C   0  0  0  0  0
   15.4790    2.3120   65.9680 O   0  0  0  0  0
   14.4660    4.0340   67.0550 N   0  0  0  0  0
   14.4870    5.1540   67.8760 C   0  0  0  0  0
   13.2750    5.6190   68.2450 N   0  0  0  0  0
   15.6540    5.7350   68.1890 N   0  0  0  0  0
   16.8210    5.0820   67.8450 C   0  0  0  0  0
   26.6052   10.0432   63.1468 H   0  0  0  0  0
   26.0984   11.2634   65.3583 H   0  0  0  0  0
   24.5649    9.2930   65.1545 H   0  0  0  0  0
   23.7794    7.5277   63.6964 H   0  0  0  0  0
   24.1790    8.2616   68.3747 H   0  0  0  0  0
   21.1238    8.6949   66.7995 H   0  0  0  0  0
   22.0958    9.0542   68.1516 H   0  0  0  0  0
   19.9613    9.3082   68.8434 H   0  0  0  0  0
   21.3880    7.4865   70.2682 H   0  0  0  0  0
   19.7981    7.8332   71.9717 H   0  0  0  0  0
   20.0829    5.4343   69.6944 H   0  0  0  0  0
   18.3511    5.2977   71.1403 H   0  0  0  0  0
   17.4591    7.0358   69.3665 H   0  0  0  0  0
   19.9691    4.7152   67.4319 H   0  0  0  0  0
   12.4288    5.1507   67.9210 H   0  0  0  0  0
   15.6791    6.6350   68.6683 H   0  0  0  0  0
  1  2  1  0  0  0
  1  3  2  0  0  0
  1  4  1  0  0  0
  1  5  1  0  0  0
  5  6  1  0  0  0
  6  7  2  0  0  0
  6  8  1  0  0  0
  6  9  1  0  0  0
  9 10  1  0  0  0
 10 11  2  0  0  0
 10 12  1  0  0  0
 10 13  1  0  0  0
 13 14  1  0  0  0
 14 15  1  0  0  0
 15 16  1  0  0  0
 15 17  1  0  0  0
 16 21  1  0  0  0
 17 18  1  0  0  0
 17 19  1  0  0  0
 19 20  1  0  0  0
 19 21  1  0  0  0
 21 22  1  0  0  0
 22 23  4  0  0  0
 22 32  4  0  0  0
 23 24  4  0  0  0
 24 25  4  0  0  0
 25 26  1  0  0  0
 25 32  4  0  0  0
 26 27  2  0  0  0
 26 28  1  0  0  0
 28 29  4  0  0  0
 29 30  2  0  0  0
 29 31  1  0  0  0
 31 32  1  0  0  0
  2 33  1  0  0  0
  4 34  1  0  0  0
  5 35  1  0  0  0
  8 36  1  0  0  0
 12 37  1  0  0  0
 14 38  1  0  0  0
 14 39  1  0  0  0
 15 40  1  0  0  0
 17 41  1  0  0  0
 18 42  1  0  0  0
 19 43  1  0  0  0
 20 44  1  0  0  0
 21 45  1  0  0  0
 23 46  1  0  0  0
 30 47  1  0  0  0
 31 48  1  0  0  0
M  END
$$$$
