2wig_ligand
  -I-interpret- 

 16 15  0  0  0  0  0  0  0  0999 V2000
  -13.6750  -39.2870  -22.0980 C   0  0  0  0  0
  -14.5730  -38.3130  -21.3340 C   0  0  0  0  0
  -14.8370  -37.3240  -22.2590 O   0  0  0  0  0
  -16.2640  -36.8230  -22.7160 P   0  0  0  0  0
  -16.2080  -36.6600  -24.1580 O   0  0  0  0  0
  -17.3730  -37.7900  -22.0180 N   0  0  0  0  0
  -17.8450  -38.9640  -22.8070 C   0  0  0  0  0
  -14.2099  -39.6654  -22.9690 H   0  0  0  0  0
  -12.7719  -38.7693  -22.4213 H   0  0  0  0  0
  -13.4053  -40.1181  -21.4463 H   0  0  0  0  0
  -14.0973  -37.9257  -20.4330 H   0  0  0  0  0
  -15.4801  -38.7875  -20.9597 H   0  0  0  0  0
  -17.7295  -37.6007  -21.0812 H   0  0  0  0  0
  -18.3016  -38.6173  -23.7340 H   0  0  0  0  0
  -16.9976  -39.6098  -23.0372 H   0  0  0  0  0
  -18.5795  -39.5201  -22.2245 H   0  0  0  0  0
  1  2  1  0  0  0
  2  3  1  0  0  0
  3  4  1  0  0  0
  4  5  4  0  0  0
  4  6  1  0  0  0
  6  7  1  0  0  0
  1  8  1  0  0  0
  1  9  1  0  0  0
  1 10  1  0  0  0
  2 11  1  0  0  0
  2 12  1  0  0  0
  6 13  1  0  0  0
  7 14  1  0  0  0
  7 15  1  0  0  0
  7 16  1  0  0  0
M  END
$$$$
