2wij_ligand
  -I-interpret- 

 19 18  0  0  0  0  0  0  0  0999 V2000
  -17.5180  -39.8820  -22.7350 C   0  0  0  0  0
  -18.0810  -38.4960  -23.0450 C   0  0  0  0  0
  -17.4360  -37.5150  -22.2050 O   0  0  0  0  0
  -16.1870  -36.7830  -22.7040 P   0  0  0  0  0
  -16.0600  -36.6210  -24.1610 O   0  0  0  0  0
  -14.7810  -37.5210  -21.8550 N   0  0  0  0  0
  -14.8320  -38.9550  -21.9920 C   0  0  0  0  0
  -13.4350  -39.5390  -22.1350 C   0  0  0  0  0
  -16.4450  -39.8881  -22.9267 H   0  0  0  0  0
  -17.7027  -40.1219  -21.6879 H   0  0  0  0  0
  -18.0060  -40.6214  -23.3700 H   0  0  0  0  0
  -19.1540  -38.4888  -22.8535 H   0  0  0  0  0
  -17.8967  -38.2551  -24.0919 H   0  0  0  0  0
  -14.0589  -37.0035  -21.3538 H   0  0  0  0  0
  -15.4068  -39.2007  -22.8849 H   0  0  0  0  0
  -15.2970  -39.3751  -21.1002 H   0  0  0  0  0
  -12.9561  -39.1196  -23.0198 H   0  0  0  0  0
  -12.8473  -39.2924  -21.2508 H   0  0  0  0  0
  -13.5040  -40.6221  -22.2366 H   0  0  0  0  0
  1  2  1  0  0  0
  2  3  1  0  0  0
  3  4  1  0  0  0
  4  5  4  0  0  0
  4  6  1  0  0  0
  6  7  1  0  0  0
  7  8  1  0  0  0
  1  9  1  0  0  0
  1 10  1  0  0  0
  1 11  1  0  0  0
  2 12  1  0  0  0
  2 13  1  0  0  0
  6 14  1  0  0  0
  7 15  1  0  0  0
  7 16  1  0  0  0
  8 17  1  0  0  0
  8 18  1  0  0  0
  8 19  1  0  0  0
M  END
$$$$
