2wjg_ligand
  -I-interpret- 

 42 44  0  0  0  0  0  0  0  0999 V2000
   -7.5630   25.9100  -19.0170 P   0  0  0  0  0
   -8.4760   27.1210  -18.9600 O   0  0  0  0  0
   -8.3690   24.6790  -18.6650 O   0  0  0  0  0
   -6.4330   26.1080  -18.0200 O   0  0  0  0  0
   -6.9220   25.6130  -20.4570 O   0  0  0  0  0
   -6.7230   26.6880  -21.6380 P   0  0  0  0  0
   -5.9680   27.9350  -21.2680 O   0  0  0  0  0
   -8.0690   27.0330  -22.2390 O   0  0  0  0  0
   -5.8060   25.7750  -22.6040 O   0  0  0  0  0
   -4.5320   25.3640  -22.1040 C   0  0  0  0  0
   -3.6540   24.9750  -23.2810 C   0  0  0  0  0
   -4.2450   23.8810  -23.9930 O   0  0  0  0  0
   -3.5810   26.1390  -24.2490 C   0  0  0  0  0
   -2.2350   26.1760  -24.7270 O   0  0  0  0  0
   -4.5350   25.7580  -25.3580 C   0  0  0  0  0
   -4.1710   26.2730  -26.6410 O   0  0  0  0  0
   -4.3930   24.2570  -25.3580 C   0  0  0  0  0
   -5.6040   23.6470  -25.9170 N   0  0  0  0  0
   -6.8760   23.9660  -25.6400 C   0  0  0  0  0
   -7.7220   23.1740  -26.3450 N   0  0  0  0  0
   -6.9740   22.3250  -27.0840 C   0  0  0  0  0
   -7.2300   21.2320  -28.0600 C   0  0  0  0  0
   -8.4120   20.8940  -28.3620 O   0  0  0  0  0
   -6.1560   20.6200  -28.5960 N   0  0  0  0  0
   -4.8900   20.9760  -28.2730 C   0  0  0  0  0
   -3.8570   20.3210  -28.8340 N   0  0  0  0  0
   -4.5840   21.9710  -27.3990 N   0  0  0  0  0
   -5.5780   22.6480  -26.7840 C   0  0  0  0  0
   -7.9747   27.9090  -19.1819 H   0  0  0  0  0
   -5.9322   26.8919  -18.2572 H   0  0  0  0  0
   -8.5330   26.2242  -22.4674 H   0  0  0  0  0
   -4.6527   24.5134  -21.4331 H   0  0  0  0  0
   -4.0695   26.1802  -21.5489 H   0  0  0  0  0
   -2.6684   24.7025  -22.9037 H   0  0  0  0  0
   -3.8380   27.1114  -23.8289 H   0  0  0  0  0
   -2.1369   26.9016  -25.3479 H   0  0  0  0  0
   -5.5380   26.1503  -25.1903 H   0  0  0  0  0
   -4.8181   25.9927  -27.2924 H   0  0  0  0  0
   -3.5447   23.9289  -25.9587 H   0  0  0  0  0
   -7.1860   24.7490  -24.9480 H   0  0  0  0  0
   -4.0316   19.5645  -29.4955 H   0  0  0  0  0
   -3.6096   22.2050  -27.2087 H   0  0  0  0  0
  1  2  1  0  0  0
  1  3  2  0  0  0
  1  4  1  0  0  0
  1  5  1  0  0  0
  5  6  1  0  0  0
  6  7  2  0  0  0
  6  8  1  0  0  0
  6  9  1  0  0  0
  9 10  1  0  0  0
 10 11  1  0  0  0
 11 12  1  0  0  0
 11 13  1  0  0  0
 12 17  1  0  0  0
 13 14  1  0  0  0
 13 15  1  0  0  0
 15 16  1  0  0  0
 15 17  1  0  0  0
 17 18  1  0  0  0
 18 19  4  0  0  0
 18 28  4  0  0  0
 19 20  4  0  0  0
 20 21  4  0  0  0
 21 22  1  0  0  0
 21 28  4  0  0  0
 22 23  2  0  0  0
 22 24  1  0  0  0
 24 25  4  0  0  0
 25 26  2  0  0  0
 25 27  1  0  0  0
 27 28  1  0  0  0
  2 29  1  0  0  0
  4 30  1  0  0  0
  8 31  1  0  0  0
 10 32  1  0  0  0
 10 33  1  0  0  0
 11 34  1  0  0  0
 13 35  1  0  0  0
 14 36  1  0  0  0
 15 37  1  0  0  0
 16 38  1  0  0  0
 17 39  1  0  0  0
 19 40  1  0  0  0
 26 41  1  0  0  0
 27 42  1  0  0  0
M  END
$$$$
