2x96_ligand
  -I-interpret- 

 79 83  0  0  0  0  0  0  0  0999 V2000
   33.1000    4.5660   25.4020 O   0  0  0  0  0
   31.8930    4.7100   25.1250 C   0  0  0  0  0
   31.0410    4.9460   26.0180 O   0  0  0  0  0
   31.4650    4.5930   23.6750 C   0  0  0  0  0
   31.9830    5.7620   22.8240 C   0  0  0  0  0
   31.4150    7.1170   23.1830 C   0  0  0  0  0
   30.4650    7.8450   22.4780 C   0  0  0  0  0
   29.7860    7.5530   21.2820 C   0  0  0  0  0
   28.8620    8.4810   20.7860 C   0  0  0  0  0
   28.6190    9.6810   21.4700 C   0  0  0  0  0
   29.2960    9.9670   22.6680 C   0  0  0  0  0
   30.2310    9.0380   23.1770 C   0  0  0  0  0
   31.0240    9.0340   24.2800 N   0  0  0  0  0
   31.7430    7.8820   24.2990 C   0  0  0  0  0
   30.0120    4.5700   23.5210 N   0  0  0  0  0
   29.2330    3.5810   23.9640 C   0  0  0  0  0
   29.6300    2.5640   24.5470 O   0  0  0  0  0
   27.7760    3.8220   23.6840 C   0  0  0  0  0
   27.2270    4.8920   24.6270 C   0  0  0  0  0
   26.0070    4.3030   25.3310 C   0  0  0  0  0
   26.0850    2.7860   25.1760 C   0  0  0  0  0
   26.8720    2.6410   23.9110 C   0  0  0  0  0
   26.5990    1.4260   22.7290 P   0  0  0  0  0
   27.5900    1.6350   21.6000 O   0  0  0  0  0
   25.1950    1.7250   22.3080 O   0  0  0  0  0
   26.8470   -0.2640   23.0800 C   0  0  0  0  0
   27.7150   -0.8050   24.2080 C   0  0  0  0  0
   27.6380   -2.3260   24.3210 C   0  0  0  0  0
   26.9190   -2.9030   25.3790 C   0  0  0  0  0
   26.8170   -4.3000   25.4980 C   0  0  0  0  0
   27.4310   -5.1370   24.5500 C   0  0  0  0  0
   28.1430   -4.5740   23.4790 C   0  0  0  0  0
   28.2430   -3.1780   23.3700 C   0  0  0  0  0
   26.1920   -1.1710   22.3110 N   0  0  0  0  0
   25.0930   -1.8240   21.9450 C   0  0  0  0  0
   24.0670   -1.8910   22.5870 O   0  0  0  0  0
   25.1250   -2.5030   20.6670 O   0  0  0  0  0
   23.9810   -2.6860   19.8400 C   0  0  0  0  0
   24.4070   -3.3810   18.5600 C   0  0  0  0  0
   25.2980   -2.7560   17.6750 C   0  0  0  0  0
   23.8970   -4.6560   18.2540 C   0  0  0  0  0
   24.2790   -5.3100   17.0720 C   0  0  0  0  0
   25.1680   -4.6860   16.1920 C   0  0  0  0  0
   25.6810   -3.4130   16.4980 C   0  0  0  0  0
   30.1723    5.0248   25.6171 H   0  0  0  0  0
   31.8944    3.6506   23.3350 H   0  0  0  0  0
   31.6841    5.5586   21.7957 H   0  0  0  0  0
   33.0589    5.8185   22.9896 H   0  0  0  0  0
   29.9755    6.6206   20.7502 H   0  0  0  0  0
   28.3270    8.2689   19.8603 H   0  0  0  0  0
   27.9005   10.3964   21.0699 H   0  0  0  0  0
   29.1013   10.8981   23.2002 H   0  0  0  0  0
   32.4634    7.6006   25.0671 H   0  0  0  0  0
   29.5670    5.3560   23.0471 H   0  0  0  0  0
   27.7658    4.0932   22.6283 H   0  0  0  0  0
   26.9495    5.7858   24.0682 H   0  0  0  0  0
   27.9840    5.1819   25.3557 H   0  0  0  0  0
   25.0870    4.6871   24.8904 H   0  0  0  0  0
   26.0004    4.5814   26.3848 H   0  0  0  0  0
   25.1072    2.3062   25.1329 H   0  0  0  0  0
   26.5454    2.2885   26.0296 H   0  0  0  0  0
   27.3448    1.6594   23.8784 H   0  0  0  0  0
   28.4753    1.4329   21.9113 H   0  0  0  0  0
   27.5772    0.4609   23.4398 H   0  0  0  0  0
   27.3567   -0.3780   25.1447 H   0  0  0  0  0
   28.7496   -0.5337   23.9981 H   0  0  0  0  0
   26.4349   -2.2618   26.1156 H   0  0  0  0  0
   26.2602   -4.7355   26.3277 H   0  0  0  0  0
   27.3545   -6.2200   24.6462 H   0  0  0  0  0
   28.6154   -5.2171   22.7364 H   0  0  0  0  0
   28.7968   -2.7440   22.5375 H   0  0  0  0  0
   26.9166   -1.5439   21.6976 H   0  0  0  0  0
   23.5377   -1.7185   19.6044 H   0  0  0  0  0
   23.2423   -3.2944   20.3617 H   0  0  0  0  0
   25.6903   -1.7646   17.9016 H   0  0  0  0  0
   23.2006   -5.1393   18.9393 H   0  0  0  0  0
   23.8843   -6.2996   16.8415 H   0  0  0  0  0
   25.4633   -5.1858   15.2694 H   0  0  0  0  0
   26.3819   -2.9337   15.8145 H   0  0  0  0  0
  1  2  2  0  0  0
  2  3  1  0  0  0
  2  4  1  0  0  0
  4  5  1  0  0  0
  4 15  1  0  0  0
  5  6  1  0  0  0
  6  7  4  0  0  0
  6 14  4  0  0  0
  7  8  4  0  0  0
  7 12  4  0  0  0
  8  9  4  0  0  0
  9 10  4  0  0  0
 10 11  4  0  0  0
 11 12  4  0  0  0
 12 13  4  0  0  0
 13 14  4  0  0  0
 15 16  1  0  0  0
 16 17  2  0  0  0
 16 18  1  0  0  0
 18 19  1  0  0  0
 18 22  1  0  0  0
 19 20  1  0  0  0
 20 21  1  0  0  0
 21 22  1  0  0  0
 22 23  1  0  0  0
 23 24  1  0  0  0
 23 25  2  0  0  0
 23 26  1  0  0  0
 26 27  1  0  0  0
 26 34  1  0  0  0
 27 28  1  0  0  0
 28 29  4  0  0  0
 28 33  4  0  0  0
 29 30  4  0  0  0
 30 31  4  0  0  0
 31 32  4  0  0  0
 32 33  4  0  0  0
 34 35  1  0  0  0
 35 36  2  0  0  0
 35 37  1  0  0  0
 37 38  1  0  0  0
 38 39  1  0  0  0
 39 40  4  0  0  0
 39 41  4  0  0  0
 40 44  4  0  0  0
 41 42  4  0  0  0
 42 43  4  0  0  0
 43 44  4  0  0  0
  3 45  1  0  0  0
  4 46  1  0  0  0
  5 47  1  0  0  0
  5 48  1  0  0  0
  8 49  1  0  0  0
  9 50  1  0  0  0
 10 51  1  0  0  0
 11 52  1  0  0  0
 14 53  1  0  0  0
 15 54  1  0  0  0
 18 55  1  0  0  0
 19 56  1  0  0  0
 19 57  1  0  0  0
 20 58  1  0  0  0
 20 59  1  0  0  0
 21 60  1  0  0  0
 21 61  1  0  0  0
 22 62  1  0  0  0
 24 63  1  0  0  0
 26 64  1  0  0  0
 27 65  1  0  0  0
 27 66  1  0  0  0
 29 67  1  0  0  0
 30 68  1  0  0  0
 31 69  1  0  0  0
 32 70  1  0  0  0
 33 71  1  0  0  0
 34 72  1  0  0  0
 38 73  1  0  0  0
 38 74  1  0  0  0
 40 75  1  0  0  0
 41 76  1  0  0  0
 42 77  1  0  0  0
 43 78  1  0  0  0
 44 79  1  0  0  0
M  END
$$$$
