2xtn_ligand
  -I-interpret- 

 47 49  0  0  0  0  0  0  0  0999 V2000
    6.9930   21.8690   19.6320 P   0  0  0  0  0
    7.8650   22.2700   20.7960 O   0  0  0  0  0
    7.8200   21.5590   18.4240 O   0  0  0  0  0
    6.0060   22.9600   19.3050 O   0  0  0  0  0
    6.1980   20.5910   20.1850 O   0  0  0  0  0
    5.3220   19.5220   19.3700 P   0  0  0  0  0
    6.0300   19.1310   18.1060 O   0  0  0  0  0
    3.8930   19.9600   19.1700 O   0  0  0  0  0
    5.3240   18.2640   20.3730 O   0  0  0  0  0
    6.5240   17.2000   20.5410 P   0  0  0  0  0
    7.8610   17.8830   20.6730 O   0  0  0  0  0
    6.4960   16.1950   19.4370 O   0  0  0  0  0
    6.0840   16.5130   21.9220 O   0  0  0  0  0
    6.3060   17.1330   23.1780 C   0  0  0  0  0
    6.2320   16.0430   24.2500 C   0  0  0  0  0
    4.8950   15.5680   24.3520 O   0  0  0  0  0
    7.0940   14.8420   23.8950 C   0  0  0  0  0
    7.7270   14.3690   25.0630 O   0  0  0  0  0
    6.1110   13.8000   23.4090 C   0  0  0  0  0
    6.5670   12.4910   23.6610 O   0  0  0  0  0
    4.8630   14.1620   24.2020 C   0  0  0  0  0
    3.6360   13.7230   23.5200 N   0  0  0  0  0
    3.1620   14.1260   22.2980 C   0  0  0  0  0
    2.0050   13.4710   22.0590 N   0  0  0  0  0
    1.7370   12.6530   23.0990 C   0  0  0  0  0
    0.6970   11.7680   23.3730 C   0  0  0  0  0
   -0.2320   11.5970   22.5740 O   0  0  0  0  0
    0.7160   11.0680   24.5680 N   0  0  0  0  0
    1.7410   11.2410   25.4720 C   0  0  0  0  0
    1.7460   10.5570   26.6160 N   0  0  0  0  0
    2.7650   12.1190   25.1950 N   0  0  0  0  0
    2.7540   12.8160   24.0320 C   0  0  0  0  0
    7.3123   22.4633   21.5568 H   0  0  0  0  0
    5.4778   23.1556   20.0824 H   0  0  0  0  0
    3.5091   20.1928   20.0185 H   0  0  0  0  0
    7.8258   18.5164   21.3936 H   0  0  0  0  0
    5.5537   17.9000   23.3623 H   0  0  0  0  0
    7.2816   17.6188   23.1957 H   0  0  0  0  0
    6.5826   16.4878   25.1813 H   0  0  0  0  0
    7.8604   15.0758   23.1560 H   0  0  0  0  0
    8.2730   13.6102   24.8448 H   0  0  0  0  0
    5.9488   13.8026   22.3311 H   0  0  0  0  0
    5.9187   11.8601   23.3396 H   0  0  0  0  0
    4.8540   13.6583   25.1686 H   0  0  0  0  0
    3.6364   14.8492   21.6347 H   0  0  0  0  0
    0.9901    9.9042   26.8232 H   0  0  0  0  0
    3.5274   12.2443   25.8609 H   0  0  0  0  0
  1  2  1  0  0  0
  1  3  2  0  0  0
  1  4  1  0  0  0
  1  5  1  0  0  0
  5  6  1  0  0  0
  6  7  2  0  0  0
  6  8  1  0  0  0
  6  9  1  0  0  0
  9 10  1  0  0  0
 10 11  1  0  0  0
 10 12  2  0  0  0
 10 13  1  0  0  0
 13 14  1  0  0  0
 14 15  1  0  0  0
 15 16  1  0  0  0
 15 17  1  0  0  0
 16 21  1  0  0  0
 17 18  1  0  0  0
 17 19  1  0  0  0
 19 20  1  0  0  0
 19 21  1  0  0  0
 21 22  1  0  0  0
 22 23  4  0  0  0
 22 32  4  0  0  0
 23 24  4  0  0  0
 24 25  4  0  0  0
 25 26  1  0  0  0
 25 32  4  0  0  0
 26 27  2  0  0  0
 26 28  1  0  0  0
 28 29  4  0  0  0
 29 30  2  0  0  0
 29 31  1  0  0  0
 31 32  1  0  0  0
  2 33  1  0  0  0
  4 34  1  0  0  0
  8 35  1  0  0  0
 11 36  1  0  0  0
 14 37  1  0  0  0
 14 38  1  0  0  0
 15 39  1  0  0  0
 17 40  1  0  0  0
 18 41  1  0  0  0
 19 42  1  0  0  0
 20 43  1  0  0  0
 21 44  1  0  0  0
 23 45  1  0  0  0
 30 46  1  0  0  0
 31 47  1  0  0  0
M  END
$$$$
