2xto_ligand
  -I-interpret- 

 42 44  0  0  0  0  0  0  0  0999 V2000
  -16.8600  -24.8410    6.3060 P   0  0  0  0  0
  -16.3780  -25.1020    7.7120 O   0  0  0  0  0
  -15.9280  -23.8770    5.6120 O   0  0  0  0  0
  -18.2530  -24.2500    6.3810 O   0  0  0  0  0
  -16.8920  -26.2050    5.4470 O   0  0  0  0  0
  -16.9950  -27.6620    6.1230 P   0  0  0  0  0
  -18.1960  -27.7820    7.0300 O   0  0  0  0  0
  -15.7330  -28.0030    6.8760 O   0  0  0  0  0
  -17.1360  -28.5940    4.8260 O   0  0  0  0  0
  -18.2770  -28.5040    3.9750 C   0  0  0  0  0
  -18.2840  -29.6960    3.0220 C   0  0  0  0  0
  -17.1720  -29.5920    2.1290 O   0  0  0  0  0
  -18.1470  -31.0270    3.7550 C   0  0  0  0  0
  -19.1260  -31.9430    3.2470 O   0  0  0  0  0
  -16.7310  -31.4970    3.4570 C   0  0  0  0  0
  -16.6150  -32.9180    3.3330 O   0  0  0  0  0
  -16.4170  -30.8050    2.1410 C   0  0  0  0  0
  -14.9620  -30.5600    1.9770 N   0  0  0  0  0
  -14.1690  -29.7630    2.7190 C   0  0  0  0  0
  -12.8870  -29.7990    2.2660 N   0  0  0  0  0
  -12.8510  -30.6390    1.2130 C   0  0  0  0  0
  -11.8280  -31.1420    0.2630 C   0  0  0  0  0
  -10.6370  -30.7750    0.3420 O   0  0  0  0  0
  -12.2180  -32.0030   -0.6880 N   0  0  0  0  0
  -13.4950  -32.4270   -0.8040 C   0  0  0  0  0
  -13.8220  -33.2990   -1.7870 N   0  0  0  0  0
  -14.4810  -32.0070    0.0270 N   0  0  0  0  0
  -14.2220  -31.1340    1.0310 C   0  0  0  0  0
  -16.2420  -23.7169    4.7190 H   0  0  0  0  0
  -18.5746  -24.0778    5.4930 H   0  0  0  0  0
  -18.9905  -27.5624    6.5379 H   0  0  0  0  0
  -18.2356  -27.5772    3.4028 H   0  0  0  0  0
  -19.1854  -28.5107    4.5774 H   0  0  0  0  0
  -19.2385  -29.6756    2.4961 H   0  0  0  0  0
  -18.3118  -30.9484    4.8296 H   0  0  0  0  0
  -19.0446  -32.7829    3.7047 H   0  0  0  0  0
  -16.0432  -31.2524    4.2665 H   0  0  0  0  0
  -15.7020  -33.1483    3.1461 H   0  0  0  0  0
  -16.6939  -31.4363    1.2967 H   0  0  0  0  0
  -14.5088  -29.1695    3.5677 H   0  0  0  0  0
  -13.1061  -33.6309   -2.4333 H   0  0  0  0  0
  -15.4313  -32.3531   -0.1054 H   0  0  0  0  0
  1  2  2  0  0  0
  1  3  1  0  0  0
  1  4  1  0  0  0
  1  5  1  0  0  0
  5  6  1  0  0  0
  6  7  1  0  0  0
  6  8  2  0  0  0
  6  9  1  0  0  0
  9 10  1  0  0  0
 10 11  1  0  0  0
 11 12  1  0  0  0
 11 13  1  0  0  0
 12 17  1  0  0  0
 13 14  1  0  0  0
 13 15  1  0  0  0
 15 16  1  0  0  0
 15 17  1  0  0  0
 17 18  1  0  0  0
 18 19  4  0  0  0
 18 28  4  0  0  0
 19 20  4  0  0  0
 20 21  4  0  0  0
 21 22  1  0  0  0
 21 28  4  0  0  0
 22 23  2  0  0  0
 22 24  1  0  0  0
 24 25  4  0  0  0
 25 26  2  0  0  0
 25 27  1  0  0  0
 27 28  1  0  0  0
  3 29  1  0  0  0
  4 30  1  0  0  0
  7 31  1  0  0  0
 10 32  1  0  0  0
 10 33  1  0  0  0
 11 34  1  0  0  0
 13 35  1  0  0  0
 14 36  1  0  0  0
 15 37  1  0  0  0
 16 38  1  0  0  0
 17 39  1  0  0  0
 19 40  1  0  0  0
 26 41  1  0  0  0
 27 42  1  0  0  0
M  END
$$$$
