2xzc_ligand
  -I-interpret- 

 38 40  0  0  0  0  0  0  0  0999 V2000
  -12.9060    1.5270    1.2920 C   0  0  0  0  0
  -11.8570    2.3170    1.6600 C   0  0  0  0  0
  -11.6670    3.6280    1.2630 C   0  0  0  0  0
  -12.5740    4.2430    0.4530 C   0  0  0  0  0
  -13.6250    3.4950    0.0220 C   0  0  0  0  0
  -13.8110    2.1620    0.4440 C   0  0  0  0  0
  -14.4720   -2.1070    1.1660 C   0  0  0  0  0
  -16.0110   -2.0160    1.0930 C   0  0  0  0  0
  -16.5670   -2.1130   -0.3180 C   0  0  0  0  0
  -16.0610   -3.4150   -0.8790 N   0  3  0  0  0
  -11.7550   -0.7040    2.2020 O   0  0  0  0  0
  -13.7850   -0.8530    0.7600 O   0  0  0  0  0
  -13.0300   -0.0960    1.8690 P   0  0  0  0  0
  -15.9500   -1.1250   -1.3270 C   0  0  0  0  0
  -14.6230   -1.7810   -1.8660 C   0  0  0  0  0
  -14.6310   -3.1870   -1.2370 C   0  0  0  0  0
  -13.8640   -3.0990    0.1120 C   0  0  0  0  0
  -16.7630   -3.9470   -2.1260 C   0  0  0  0  0
  -11.1080    1.8798    2.3203 H   0  0  0  0  0
  -10.7855    4.1732    1.6004 H   0  0  0  0  0
  -12.4622    5.2879    0.1634 H   0  0  0  0  0
  -14.3431    3.9377   -0.6683 H   0  0  0  0  0
  -14.6868    1.6136    0.0972 H   0  0  0  0  0
  -14.3170   -2.3911    2.2068 H   0  0  0  0  0
  -16.2973   -1.0413    1.4881 H   0  0  0  0  0
  -16.4128   -2.8568    1.6584 H   0  0  0  0  0
  -17.6415   -1.9571   -0.2216 H   0  0  0  0  0
  -16.2320   -4.1182   -0.1602 H   0  0  0  0  0
  -15.7395   -0.1683   -0.8489 H   0  0  0  0  0
  -16.6423   -0.9290   -2.1458 H   0  0  0  0  0
  -13.7358   -1.2087   -1.5951 H   0  0  0  0  0
  -14.5864   -1.8122   -2.9549 H   0  0  0  0  0
  -14.2023   -3.9481   -1.8890 H   0  0  0  0  0
  -13.9039   -4.0923    0.5590 H   0  0  0  0  0
  -12.8641   -2.7327   -0.1208 H   0  0  0  0  0
  -17.8179   -4.1104   -1.9057 H   0  0  0  0  0
  -16.6673   -3.2206   -2.9330 H   0  0  0  0  0
  -16.3032   -4.8885   -2.4265 H   0  0  0  0  0
  1  2  4  0  0  0
  1  6  4  0  0  0
 13  1  1  0  0  0
  2  3  4  0  0  0
  3  4  4  0  0  0
  5  4  4  0  0  0
  6  5  4  0  0  0
  7  8  1  0  0  0
 12  7  1  0  0  0
  7 17  1  0  0  0
  8  9  1  0  0  0
  9 10  1  0  0  0
  9 14  1  0  0  0
 10 16  1  0  0  0
 10 18  1  0  0  0
 13 11  4  0  0  0
 12 13  1  0  0  0
 14 15  1  0  0  0
 15 16  1  0  0  0
 16 17  1  0  0  0
  2 19  1  0  0  0
  3 20  1  0  0  0
  4 21  1  0  0  0
  5 22  1  0  0  0
  6 23  1  0  0  0
  7 24  1  0  0  0
  8 25  1  0  0  0
  8 26  1  0  0  0
  9 27  1  0  0  0
 10 28  1  0  0  0
 14 29  1  0  0  0
 14 30  1  0  0  0
 15 31  1  0  0  0
 15 32  1  0  0  0
 16 33  1  0  0  0
 17 34  1  0  0  0
 17 35  1  0  0  0
 18 36  1  0  0  0
 18 37  1  0  0  0
 18 38  1  0  0  0
M  END
$$$$
