2zit_ligand
  -I-interpret- 

 72 76  0  0  0  0  0  0  0  0999 V2000
    3.3390   -5.0010   93.9860 P   0  0  0  0  0
    1.9380   -4.6130   94.3580 O   0  0  0  0  0
    4.2470   -5.5340   95.0530 O   0  0  0  0  0
    3.9980   -3.7030   93.3140 O   0  0  0  0  0
    3.1540   -2.9760   92.4230 C   0  0  0  0  0
    3.7610   -2.7090   91.0480 C   0  0  0  0  0
    4.1390   -1.3410   90.8760 O   0  0  0  0  0
    4.9760   -3.5590   90.6910 C   0  0  0  0  0
    4.5960   -4.7090   89.9230 O   0  0  0  0  0
    5.8660   -2.6080   89.9020 C   0  0  0  0  0
    6.1400   -3.1260   88.5980 O   0  0  0  0  0
    5.0550   -1.3240   89.7830 C   0  0  0  0  0
    5.9060   -0.1040   89.7250 N   0  0  0  0  0
    5.8230    0.8570   88.7920 C   0  0  0  0  0
    6.7350    1.8140   89.0650 N   0  0  0  0  0
    7.3900    1.4500   90.1830 C   0  0  0  0  0
    8.4160    2.0380   90.9140 C   0  0  0  0  0
    8.9540    3.2250   90.5300 N   0  0  0  0  0
    8.8690    1.4120   92.0220 N   0  0  0  0  0
    8.3430    0.2430   92.4120 C   0  0  0  0  0
    7.3520   -0.3440   91.7230 N   0  0  0  0  0
    6.8520    0.2440   90.6050 C   0  0  0  0  0
    3.2910   -6.0510   92.7660 O   0  0  0  0  0
    4.5090   -7.0560   92.4440 P   0  0  0  0  0
    5.7100   -6.7050   93.2750 O   0  0  0  0  0
    4.6540   -7.1560   90.9500 O   0  0  0  0  0
    3.8900   -8.4280   92.9930 O   0  0  0  0  0
    3.8390   -8.6330   94.4010 C   0  0  0  0  0
    3.6650  -10.1050   94.7530 C   0  0  0  0  0
    4.2290  -10.9170   93.7250 O   0  0  0  0  0
    4.4250  -10.4010   96.0340 C   0  0  0  0  0
    3.5310  -10.5980   97.1320 O   0  0  0  0  0
    5.2300  -11.6530   95.7540 C   0  0  0  0  0
    4.7180  -12.7580   96.5120 O   0  0  0  0  0
    5.0820  -11.9250   94.2670 C   0  0  0  0  0
    6.3890  -11.8340   93.6060 N   0  0  0  0  0
    6.5620  -10.9640   92.6030 C   0  0  0  0  0
    7.7820  -10.8610   91.9430 C   0  0  0  0  0
    7.9350   -9.8710   90.8240 C   0  0  0  0  0
    8.8960   -9.9470   90.0760 O   0  0  0  0  0
    6.9960   -8.9430   90.6640 N   0  0  0  0  0
    8.8340  -11.6850   92.3220 C   0  0  0  0  0
    8.6330  -12.5850   93.3570 C   0  0  0  0  0
    7.3890  -12.6440   93.9780 C   0  0  0  0  0
    1.4785   -4.2918   93.5787 H   0  0  0  0  0
    2.9678   -2.0052   92.8824 H   0  0  0  0  0
    2.2619   -3.5819   92.2646 H   0  0  0  0  0
    2.9470   -2.9847   90.3776 H   0  0  0  0  0
    5.4851   -3.9644   91.5654 H   0  0  0  0  0
    4.0379   -5.2789   90.4571 H   0  0  0  0  0
    6.8277   -2.4584   90.3928 H   0  0  0  0  0
    6.7014   -2.5099   88.1216 H   0  0  0  0  0
    4.5133   -1.2826   88.8380 H   0  0  0  0  0
    5.1310    0.8637   87.9499 H   0  0  0  0  0
    8.6055    3.6967   89.6954 H   0  0  0  0  0
    9.7064    3.6445   91.0763 H   0  0  0  0  0
    8.7285   -0.2420   93.3088 H   0  0  0  0  0
    3.8065   -7.3860   90.5621 H   0  0  0  0  0
    2.9850   -8.0831   94.7964 H   0  0  0  0  0
    4.7785   -8.2867   94.8317 H   0  0  0  0  0
    2.6020  -10.3176   94.8670 H   0  0  0  0  0
    5.0686   -9.5677   96.3159 H   0  0  0  0  0
    4.0374  -10.7828   97.9263 H   0  0  0  0  0
    6.2749  -11.5229   96.0356 H   0  0  0  0  0
    5.2383  -13.5424   96.3234 H   0  0  0  0  0
    4.6709  -12.9223   94.1103 H   0  0  0  0  0
    5.7326  -10.3256   92.2985 H   0  0  0  0  0
    7.0682   -8.2707   89.9003 H   0  0  0  0  0
    6.2035   -8.9035   91.3050 H   0  0  0  0  0
    9.7976  -11.6252   91.8161 H   0  0  0  0  0
    9.4415  -13.2401   93.6813 H   0  0  0  0  0
    7.2254  -13.3622   94.7815 H   0  0  0  0  0
  1  2  1  0  0  0
  1  3  2  0  0  0
  1  4  1  0  0  0
  1 23  1  0  0  0
  4  5  1  0  0  0
  5  6  1  0  0  0
  6  7  1  0  0  0
  6  8  1  0  0  0
  7 12  1  0  0  0
  8  9  1  0  0  0
  8 10  1  0  0  0
 10 11  1  0  0  0
 10 12  1  0  0  0
 12 13  1  0  0  0
 13 14  4  0  0  0
 13 22  4  0  0  0
 14 15  4  0  0  0
 15 16  4  0  0  0
 16 17  4  0  0  0
 16 22  4  0  0  0
 17 18  1  0  0  0
 17 19  4  0  0  0
 19 20  4  0  0  0
 20 21  4  0  0  0
 21 22  4  0  0  0
 23 24  1  0  0  0
 24 25  2  0  0  0
 24 26  1  0  0  0
 24 27  1  0  0  0
 27 28  1  0  0  0
 28 29  1  0  0  0
 29 30  1  0  0  0
 29 31  1  0  0  0
 30 35  1  0  0  0
 31 32  1  0  0  0
 31 33  1  0  0  0
 33 34  1  0  0  0
 33 35  1  0  0  0
 35 36  1  0  0  0
 36 37  4  0  0  0
 36 44  4  0  0  0
 37 38  4  0  0  0
 38 39  1  0  0  0
 38 42  4  0  0  0
 39 40  2  0  0  0
 39 41  1  0  0  0
 42 43  4  0  0  0
 43 44  4  0  0  0
  2 45  1  0  0  0
  5 46  1  0  0  0
  5 47  1  0  0  0
  6 48  1  0  0  0
  8 49  1  0  0  0
  9 50  1  0  0  0
 10 51  1  0  0  0
 11 52  1  0  0  0
 12 53  1  0  0  0
 14 54  1  0  0  0
 18 55  1  0  0  0
 18 56  1  0  0  0
 20 57  1  0  0  0
 26 58  1  0  0  0
 28 59  1  0  0  0
 28 60  1  0  0  0
 29 61  1  0  0  0
 31 62  1  0  0  0
 32 63  1  0  0  0
 33 64  1  0  0  0
 34 65  1  0  0  0
 35 66  1  0  0  0
 37 67  1  0  0  0
 41 68  1  0  0  0
 41 69  1  0  0  0
 42 70  1  0  0  0
 43 71  1  0  0  0
 44 72  1  0  0  0
M  END
$$$$
