3b8h_ligand
  -I-interpret- 

 72 76  0  0  0  0  0  0  0  0999 V2000
    3.5920   -5.3490   94.8520 P   0  0  0  0  0
    2.1670   -5.0600   95.2540 O   0  0  0  0  0
    4.5770   -5.8150   95.8990 O   0  0  0  0  0
    4.1380   -3.9960   94.1880 O   0  0  0  0  0
    3.2550   -3.2870   93.3450 C   0  0  0  0  0
    3.8720   -2.9040   92.0110 C   0  0  0  0  0
    4.3750   -1.5660   91.9670 O   0  0  0  0  0
    5.0000   -3.8080   91.5450 C   0  0  0  0  0
    4.5610   -4.6010   90.4500 O   0  0  0  0  0
    6.0690   -2.8770   91.0350 C   0  0  0  0  0
    6.5670   -3.3490   89.7820 O   0  0  0  0  0
    5.2940   -1.5800   90.8780 C   0  0  0  0  0
    6.1480   -0.3740   90.7330 N   0  0  0  0  0
    6.0120    0.5470   89.7660 C   0  0  0  0  0
    6.9440    1.5070   89.9350 N   0  0  0  0  0
    7.6620    1.1800   91.0280 C   0  0  0  0  0
    8.7320    1.7760   91.6740 C   0  0  0  0  0
    9.2470    2.9380   91.1990 N   0  0  0  0  0
    9.2440    1.1820   92.7770 N   0  0  0  0  0
    8.7300    0.0350   93.2420 C   0  0  0  0  0
    7.6980   -0.5600   92.6340 N   0  0  0  0  0
    7.1470    0.0000   91.5330 C   0  0  0  0  0
    3.5960   -6.4100   93.6370 O   0  0  0  0  0
    4.8320   -7.4080   93.3430 P   0  0  0  0  0
    6.1420   -6.7110   93.6110 O   0  0  0  0  0
    4.5840   -8.0510   92.0060 O   0  0  0  0  0
    4.6070   -8.5110   94.4900 O   0  0  0  0  0
    3.4200   -9.2980   94.4940 C   0  0  0  0  0
    3.6990  -10.6640   95.1000 C   0  0  0  0  0
    4.4730  -11.4360   94.1840 O   0  0  0  0  0
    4.5020  -10.5830   96.3830 C   0  0  0  0  0
    3.6500  -10.6830   97.5270 O   0  0  0  0  0
    5.4460  -11.7640   96.3120 C   0  0  0  0  0
    4.9690  -12.8040   97.1740 O   0  0  0  0  0
    5.4050  -12.2640   94.8770 C   0  0  0  0  0
    6.7160  -12.1380   94.2290 N   0  0  0  0  0
    6.8700  -11.2820   93.2060 C   0  0  0  0  0
    8.0980  -11.1480   92.5600 C   0  0  0  0  0
    8.2530  -10.1820   91.4160 C   0  0  0  0  0
    9.1570  -10.3360   90.6130 O   0  0  0  0  0
    7.3840   -9.1840   91.2910 N   0  0  0  0  0
    9.1730  -11.9250   92.9740 C   0  0  0  0  0
    8.9880  -12.8100   94.0300 C   0  0  0  0  0
    7.7380  -12.9060   94.6360 C   0  0  0  0  0
    5.4342   -5.9553   95.4903 H   0  0  0  0  0
    2.9811   -2.3647   93.8573 H   0  0  0  0  0
    2.4044   -3.9367   93.1392 H   0  0  0  0  0
    3.0192   -3.0133   91.3410 H   0  0  0  0  0
    5.3417   -4.4629   92.3465 H   0  0  0  0  0
    3.8772   -5.2054   90.7479 H   0  0  0  0  0
    6.9432   -2.7821   91.6791 H   0  0  0  0  0
    7.2472   -2.7511   89.4636 H   0  0  0  0  0
    4.7531   -1.5409   89.9325 H   0  0  0  0  0
    5.2669    0.5228   88.9708 H   0  0  0  0  0
    8.8460    3.3712   90.3672 H   0  0  0  0  0
   10.0352    3.3783   91.6737 H   0  0  0  0  0
    9.1613   -0.4217   94.1328 H   0  0  0  0  0
    6.1385   -6.3579   94.5037 H   0  0  0  0  0
    3.0731   -9.4263   93.4687 H   0  0  0  0  0
    2.6584   -8.7926   95.0879 H   0  0  0  0  0
    2.7285  -11.1124   95.3123 H   0  0  0  0  0
    5.0291   -9.6340   96.4810 H   0  0  0  0  0
    4.1805  -10.6292   98.3253 H   0  0  0  0  0
    6.4545  -11.4824   96.6148 H   0  0  0  0  0
    5.5668  -13.5539   97.1300 H   0  0  0  0  0
    5.1229  -13.3167   94.8594 H   0  0  0  0  0
    6.0217  -10.6826   92.8756 H   0  0  0  0  0
    7.4668   -8.5301   90.5125 H   0  0  0  0  0
    6.6343   -9.0720   91.9735 H   0  0  0  0  0
   10.1415  -11.8423   92.4809 H   0  0  0  0  0
    9.8164  -13.4250   94.3815 H   0  0  0  0  0
    7.5880  -13.6139   95.4512 H   0  0  0  0  0
  1  2  2  0  0  0
  1  3  1  0  0  0
  1  4  1  0  0  0
  1 23  1  0  0  0
  4  5  1  0  0  0
  5  6  1  0  0  0
  6  7  1  0  0  0
  6  8  1  0  0  0
  7 12  1  0  0  0
  8  9  1  0  0  0
  8 10  1  0  0  0
 10 11  1  0  0  0
 10 12  1  0  0  0
 12 13  1  0  0  0
 13 14  4  0  0  0
 13 22  4  0  0  0
 14 15  4  0  0  0
 15 16  4  0  0  0
 16 17  4  0  0  0
 16 22  4  0  0  0
 17 18  1  0  0  0
 17 19  4  0  0  0
 19 20  4  0  0  0
 20 21  4  0  0  0
 21 22  4  0  0  0
 23 24  1  0  0  0
 24 25  1  0  0  0
 24 26  2  0  0  0
 24 27  1  0  0  0
 27 28  1  0  0  0
 28 29  1  0  0  0
 29 30  1  0  0  0
 29 31  1  0  0  0
 30 35  1  0  0  0
 31 32  1  0  0  0
 31 33  1  0  0  0
 33 34  1  0  0  0
 33 35  1  0  0  0
 35 36  1  0  0  0
 36 37  4  0  0  0
 36 44  4  0  0  0
 37 38  4  0  0  0
 38 39  1  0  0  0
 38 42  4  0  0  0
 39 40  2  0  0  0
 39 41  1  0  0  0
 42 43  4  0  0  0
 43 44  4  0  0  0
  3 45  1  0  0  0
  5 46  1  0  0  0
  5 47  1  0  0  0
  6 48  1  0  0  0
  8 49  1  0  0  0
  9 50  1  0  0  0
 10 51  1  0  0  0
 11 52  1  0  0  0
 12 53  1  0  0  0
 14 54  1  0  0  0
 18 55  1  0  0  0
 18 56  1  0  0  0
 20 57  1  0  0  0
 25 58  1  0  0  0
 28 59  1  0  0  0
 28 60  1  0  0  0
 29 61  1  0  0  0
 31 62  1  0  0  0
 32 63  1  0  0  0
 33 64  1  0  0  0
 34 65  1  0  0  0
 35 66  1  0  0  0
 37 67  1  0  0  0
 41 68  1  0  0  0
 41 69  1  0  0  0
 42 70  1  0  0  0
 43 71  1  0  0  0
 44 72  1  0  0  0
M  END
$$$$
