3bbf_ligand
  -I-interpret- 

 42 44  0  0  0  0  0  0  0  0999 V2000
   21.6060   38.1730   33.5790 P   0  0  0  0  0
   20.2160   38.8330   33.6130 O   0  0  0  0  0
   22.7030   39.1100   34.1200 O   0  0  0  0  0
   21.7060   36.9320   34.3990 O   0  0  0  0  0
   22.0370   37.8950   32.0350 O   0  0  0  0  0
   21.2870   37.0870   30.8650 P   0  0  0  0  0
   19.8100   37.0620   31.0450 O   0  0  0  0  0
   21.7210   37.6880   29.5570 O   0  0  0  0  0
   21.7850   35.5590   30.9630 O   0  0  0  0  0
   21.1290   34.7710   31.9330 C   0  0  0  0  0
   22.0730   33.7260   32.4630 C   0  0  0  0  0
   22.5050   32.8580   31.4190 O   0  0  0  0  0
   23.3370   34.3080   33.0770 C   0  0  0  0  0
   23.0620   34.8780   34.3540 O   0  0  0  0  0
   24.1860   33.0640   33.0810 C   0  0  0  0  0
   23.8130   32.1950   34.1560 O   0  0  0  0  0
   23.8070   32.4100   31.7620 C   0  0  0  0  0
   24.7080   32.8210   30.6800 N   0  0  0  0  0
   24.7500   34.0170   30.0480 C   0  0  0  0  0
   25.7290   34.0150   29.1200 N   0  0  0  0  0
   26.3060   32.7870   29.1410 C   0  0  0  0  0
   27.3760   32.0620   28.4130 C   0  0  0  0  0
   28.0620   32.5820   27.5150 O   0  0  0  0  0
   27.6060   30.7910   28.7680 N   0  0  0  0  0
   26.9560   30.1370   29.7350 C   0  0  0  0  0
   27.2960   28.8470   29.9810 N   0  0  0  0  0
   25.9490   30.7010   30.4450 N   0  0  0  0  0
   25.6160   32.0000   30.1730 C   0  0  0  0  0
   20.2242   39.6221   33.0663 H   0  0  0  0  0
   22.6896   39.9342   33.6279 H   0  0  0  0  0
   22.6794   37.6748   29.5024 H   0  0  0  0  0
   20.2679   34.2816   31.4779 H   0  0  0  0  0
   20.7997   35.4088   32.7532 H   0  0  0  0  0
   21.5032   33.1999   33.2289 H   0  0  0  0  0
   23.8130   35.1443   32.5651 H   0  0  0  0  0
   23.8714   35.2388   34.7231 H   0  0  0  0  0
   25.2492   33.2731   33.1993 H   0  0  0  0  0
   24.3662   31.4106   34.1386 H   0  0  0  0  0
   23.8639   31.3279   31.8799 H   0  0  0  0  0
   24.0897   34.8584   30.2580 H   0  0  0  0  0
   28.0315   28.4001   29.4335 H   0  0  0  0  0
   25.4530   30.1719   31.1623 H   0  0  0  0  0
  1  2  1  0  0  0
  1  3  1  0  0  0
  1  4  2  0  0  0
  1  5  1  0  0  0
  5  6  1  0  0  0
  6  7  2  0  0  0
  6  8  1  0  0  0
  6  9  1  0  0  0
  9 10  1  0  0  0
 10 11  1  0  0  0
 11 12  1  0  0  0
 11 13  1  0  0  0
 12 17  1  0  0  0
 13 14  1  0  0  0
 13 15  1  0  0  0
 15 16  1  0  0  0
 15 17  1  0  0  0
 17 18  1  0  0  0
 18 19  4  0  0  0
 18 28  4  0  0  0
 19 20  4  0  0  0
 20 21  4  0  0  0
 21 22  1  0  0  0
 21 28  4  0  0  0
 22 23  2  0  0  0
 22 24  1  0  0  0
 24 25  4  0  0  0
 25 26  2  0  0  0
 25 27  1  0  0  0
 27 28  1  0  0  0
  2 29  1  0  0  0
  3 30  1  0  0  0
  8 31  1  0  0  0
 10 32  1  0  0  0
 10 33  1  0  0  0
 11 34  1  0  0  0
 13 35  1  0  0  0
 14 36  1  0  0  0
 15 37  1  0  0  0
 16 38  1  0  0  0
 17 39  1  0  0  0
 19 40  1  0  0  0
 26 41  1  0  0  0
 27 42  1  0  0  0
M  END
$$$$
