3bho_ligand_experimental
  -I-interpret- 

 77 82  0  0  0  0  0  0  0  0999 V2000
   22.2010    6.0890   19.4520 P   0  0  0  0  0
   22.4160    6.7450   18.1440 O   0  0  0  0  0
   21.4760    6.8640   20.4780 O   0  0  0  0  0
   21.7700    4.5490   19.2900 O   0  0  0  0  0
   20.3440    3.8960   18.9170 P   0  0  0  0  0
   20.8570    2.6430   18.3770 O   0  0  0  0  0
   19.5610    4.7000   17.9510 Du  0  0  0  0  0
   19.5800    3.5560   20.3040 O   0  0  0  0  0
   17.9850    3.5570   20.6060 P   0  0  0  0  0
   17.4760    4.9260   20.8660 O   0  0  0  0  0
   17.2890    2.7600   19.5580 Du  0  0  0  0  0
   18.0820    2.6800   21.9670 O   0  0  0  0  0
   16.9450    2.3260   23.1010 P   0  0  0  0  0
   16.9750    0.8380   23.2480 O   0  0  0  0  0
   17.3170    3.0500   24.3360 O   0  0  0  0  0
   23.6940    5.9840   20.0100 O   0  0  0  0  0
   23.8630    5.5330   21.3430 C   0  0  0  0  0
   24.8680    6.4170   22.0620 C   0  0  0  0  0
   26.1970    6.2030   21.5830 O   0  0  0  0  0
   24.6770    7.9450   21.9240 C   0  0  0  0  0
   25.3460    8.5320   23.0160 O   0  0  0  0  0
   25.4430    8.2950   20.6280 C   0  0  0  0  0
   26.1450    9.5480   20.7160 O   0  0  0  0  0
   26.4210    7.1500   20.5620 C   0  0  0  0  0
   27.1120    6.8240   19.3450 N   0  0  0  0  0
   26.4890    6.6950   18.1350 C   0  0  0  0  0
   27.2950    6.2750   17.2230 N   0  0  0  0  0
   28.5290    6.1240   17.7970 C   0  0  0  0  0
   29.7350    5.6490   17.2850 C   0  0  0  0  0
   29.7710    5.1900   16.0240 N   0  0  0  0  0
   30.7930    5.6690   18.1300 N   0  0  0  0  0
   30.5950    6.0100   19.4140 C   0  0  0  0  0
   29.5080    6.4640   20.0230 N   0  0  0  0  0
   28.4400    6.4870   19.1680 C   0  0  0  0  0
   13.1780    3.3990   22.7440 O   0  0  0  0  0
   13.0960    3.3700   24.1770 C   0  0  0  0  0
   11.7970    2.6480   24.6460 C   0  0  0  0  0
   10.6420    3.0520   23.8720 O   0  0  0  0  0
   11.8500    1.1180   24.4420 C   0  0  0  0  0
   12.5350    0.4500   25.4900 O   0  0  0  0  0
   10.4020    0.6980   24.3180 C   0  0  0  0  0
    9.7060    0.8890   25.5190 O   0  0  0  0  0
   10.0660    1.8300   23.4140 C   0  0  0  0  0
    9.7470    1.6160   22.0230 N   0  0  0  0  0
   10.1820    2.3740   20.9670 C   0  0  0  0  0
    9.8210    1.8880   19.8150 N   0  0  0  0  0
    9.0990    0.7300   20.0870 C   0  0  0  0  0
    8.4870   -0.2250   19.2720 C   0  0  0  0  0
    8.6690   -0.2220   17.9560 N   0  0  0  0  0
    7.7990   -1.1990   19.8790 N   0  0  0  0  0
    7.7630   -1.1990   21.2080 C   0  0  0  0  0
    8.3730   -0.4260   22.1080 N   0  0  0  0  0
    9.0340    0.5710   21.4990 C   0  0  0  0  0
   22.8943    6.1489   17.5631 H   0  0  0  0  0
   16.7250    0.4302   22.4156 H   0  0  0  0  0
   24.2289    4.5063   21.3324 H   0  0  0  0  0
   22.9061    5.5787   21.8629 H   0  0  0  0  0
   24.7006    6.1209   23.0976 H   0  0  0  0  0
   23.6378    8.2729   21.8994 H   0  0  0  0  0
   25.2534    9.4865   22.9710 H   0  0  0  0  0
   24.7933    8.4119   19.7606 H   0  0  0  0  0
   26.6016    9.7165   19.8885 H   0  0  0  0  0
   27.4003    7.5654   20.7996 H   0  0  0  0  0
   25.4366    6.9206   17.9630 H   0  0  0  0  0
   28.9238    5.1924   15.4560 H   0  0  0  0  0
   31.4668    5.8953   20.0581 H   0  0  0  0  0
   13.0804    4.3949   24.5477 H   0  0  0  0  0
   13.9579    2.8281   24.5662 H   0  0  0  0  0
   11.7207    2.9183   25.6992 H   0  0  0  0  0
   12.4222    0.8455   23.5551 H   0  0  0  0  0
   12.5401   -0.4942   25.3166 H   0  0  0  0  0
   10.1964   -0.3323   24.0276 H   0  0  0  0  0
    8.7934    0.6134   25.4060 H   0  0  0  0  0
    8.9889    1.9693   23.5062 H   0  0  0  0  0
   10.7677    3.2863   21.0801 H   0  0  0  0  0
    9.2638    0.4857   17.5250 H   0  0  0  0  0
    7.1209   -1.9672   21.6389 H   0  0  0  0  0
  1  2  1  0  0  0
  1  3  2  0  0  0
  4  1  1  0  0  0
  1 16  1  0  0  0
  5  4  1  0  0  0
  5  6  2  0  0  0
  5  7  1  0  0  0
  8  5  1  0  0  0
  9  8  1  0  0  0
  9 10  2  0  0  0
  9 11  1  0  0  0
 12  9  1  0  0  0
 13 12  1  0  0  0
 13 14  1  0  0  0
 13 15  2  0  0  0
 16 17  1  0  0  0
 17 18  1  0  0  0
 18 19  1  0  0  0
 18 20  1  0  0  0
 19 24  1  0  0  0
 20 21  1  0  0  0
 20 22  1  0  0  0
 22 23  1  0  0  0
 22 24  1  0  0  0
 24 25  1  0  0  0
 25 26  4  0  0  0
 25 34  4  0  0  0
 26 27  4  0  0  0
 28 27  4  0  0  0
 28 29  4  0  0  0
 34 28  4  0  0  0
 29 30  2  0  0  0
 29 31  4  0  0  0
 32 31  4  0  0  0
 33 32  4  0  0  0
 34 33  4  0  0  0
 35 36  1  0  0  0
 36 37  1  0  0  0
 37 38  1  0  0  0
 37 39  1  0  0  0
 38 43  1  0  0  0
 39 40  1  0  0  0
 39 41  1  0  0  0
 41 42  1  0  0  0
 41 43  1  0  0  0
 43 44  1  0  0  0
 44 45  4  0  0  0
 44 53  4  0  0  0
 45 46  4  0  0  0
 47 46  4  0  0  0
 47 48  4  0  0  0
 53 47  4  0  0  0
 48 49  2  0  0  0
 48 50  4  0  0  0
 51 50  4  0  0  0
 52 51  4  0  0  0
 53 52  4  0  0  0
 35 13  1  0  0  0
  2 54  1  0  0  0
 14 55  1  0  0  0
 17 56  1  0  0  0
 17 57  1  0  0  0
 18 58  1  0  0  0
 20 59  1  0  0  0
 21 60  1  0  0  0
 22 61  1  0  0  0
 23 62  1  0  0  0
 24 63  1  0  0  0
 26 64  1  0  0  0
 30 65  1  0  0  0
 32 66  1  0  0  0
 36 67  1  0  0  0
 36 68  1  0  0  0
 37 69  1  0  0  0
 39 70  1  0  0  0
 40 71  1  0  0  0
 41 72  1  0  0  0
 42 73  1  0  0  0
 43 74  1  0  0  0
 45 75  1  0  0  0
 49 76  1  0  0  0
 51 77  1  0  0  0
M  END
$$$$
