3ctr_ligand
  -I-interpret- 

 51 53  0  0  0  0  0  0  0  0999 V2000
   26.4300   21.0750    0.5890 P   0  0  0  0  0
   25.6220   19.9890   -0.0290 O   0  0  0  0  0
   26.0950   22.5000    0.2920 O   0  0  0  0  0
   26.4290   20.8320    2.1800 O   0  0  0  0  0
   27.9960   20.8000    0.2440 O   0  0  0  0  0
   27.4430   21.6270    3.1440 P   0  0  0  0  0
   27.3080   23.0790    2.8820 O   0  0  0  0  0
   28.7760   20.9920    3.0680 O   0  0  0  0  0
   26.7930   21.3120    4.5780 O   0  0  0  0  0
   26.7610   19.8200    5.1970 P   0  0  0  0  0
   28.0990   19.2170    5.4330 O   0  0  0  0  0
   25.8340   18.8940    4.2470 O   0  0  0  0  0
   25.9290   19.9960    6.5790 O   0  0  0  0  0
   28.7450   21.6180   -0.6640 C   0  0  0  0  0
   29.5810   20.7880   -1.6500 C   0  0  0  0  0
   30.1730   19.6070   -1.0190 O   0  0  0  0  0
   28.6940   20.2530   -2.7780 C   0  0  0  0  0
   28.6240   21.2390   -3.8260 O   0  0  0  0  0
   29.4780   19.0240   -3.2450 C   0  0  0  0  0
   30.5400   19.4180   -4.1240 O   0  0  0  0  0
   30.0800   18.4850   -1.9320 C   0  0  0  0  0
   29.1760   17.4750   -1.3250 N   0  3  0  0  0
   28.2650   17.6910   -0.3730 C   0  0  0  0  0
   27.6530   16.5410   -0.1130 N   0  0  0  0  0
   26.5800   16.4150    0.9050 C   0  0  0  0  0
   28.1570   15.5670   -0.8790 C   0  0  0  0  0
   27.9340   14.1920   -1.0350 C   0  0  0  0  0
   27.0950   13.5790   -0.3710 O   0  0  0  0  0
   28.6950   13.4980   -1.9770 N   0  0  0  0  0
   29.6610   14.1870   -2.7240 C   0  0  0  0  0
   30.4110   13.5580   -3.6230 N   0  0  0  0  0
   29.8460   15.4970   -2.5530 N   0  0  0  0  0
   29.1360   16.1870   -1.6540 C   0  0  0  0  0
   26.7030   23.0752    0.7623 H   0  0  0  0  0
   26.3869   23.3346    2.9701 H   0  0  0  0  0
   24.9824   19.3187    4.1208 H   0  0  0  0  0
   25.0731   20.3869    6.3884 H   0  0  0  0  0
   29.4282   22.2326   -0.0779 H   0  0  0  0  0
   28.0382   22.2143   -1.2410 H   0  0  0  0  0
   30.3611   21.4561   -2.0149 H   0  0  0  0  0
   27.6684   20.0259   -2.4869 H   0  0  0  0  0
   28.0691   20.9099   -4.5369 H   0  0  0  0  0
   28.8643   18.3022   -3.7840 H   0  0  0  0  0
   31.0233   18.6391   -4.4093 H   0  0  0  0  0
   31.0491   18.0252   -2.1257 H   0  0  0  0  0
   28.0588   18.6470    0.1083 H   0  0  0  0  0
   26.9718   16.7006    1.8812 H   0  0  0  0  0
   25.7502   17.0699    0.6393 H   0  0  0  0  0
   26.2329   15.3823    0.9393 H   0  0  0  0  0
   30.2888   12.5574   -3.7788 H   0  0  0  0  0
   30.5425   15.9818   -3.1189 H   0  0  0  0  0
  1  2  2  0  0  0
  1  3  1  0  0  0
  1  4  1  0  0  0
  1  5  1  0  0  0
  4  6  1  0  0  0
  5 14  1  0  0  0
  6  7  1  0  0  0
  6  8  2  0  0  0
  6  9  1  0  0  0
  9 10  1  0  0  0
 10 11  2  0  0  0
 10 12  1  0  0  0
 10 13  1  0  0  0
 14 15  1  0  0  0
 15 16  1  0  0  0
 15 17  1  0  0  0
 16 21  1  0  0  0
 17 18  1  0  0  0
 17 19  1  0  0  0
 19 20  1  0  0  0
 19 21  1  0  0  0
 21 22  1  0  0  0
 22 23  4  0  0  0
 22 33  4  0  0  0
 23 24  4  0  0  0
 24 25  1  0  0  0
 24 26  4  0  0  0
 26 27  1  0  0  0
 26 33  4  0  0  0
 27 28  2  0  0  0
 27 29  1  0  0  0
 29 30  4  0  0  0
 30 31  2  0  0  0
 30 32  1  0  0  0
 32 33  1  0  0  0
  3 34  1  0  0  0
  7 35  1  0  0  0
 12 36  1  0  0  0
 13 37  1  0  0  0
 14 38  1  0  0  0
 14 39  1  0  0  0
 15 40  1  0  0  0
 17 41  1  0  0  0
 18 42  1  0  0  0
 19 43  1  0  0  0
 20 44  1  0  0  0
 21 45  1  0  0  0
 23 46  1  0  0  0
 25 47  1  0  0  0
 25 48  1  0  0  0
 25 49  1  0  0  0
 31 50  1  0  0  0
 32 51  1  0  0  0
M  END
$$$$
