3d7m_ligand
  -I-interpret- 

 42 44  0  0  0  0  0  0  0  0999 V2000
  -22.8750   14.3050  -12.9890 P   0  0  0  0  0
  -23.7490   15.1050  -12.1490 O   0  0  0  0  0
  -23.0890   12.8640  -12.8230 O   0  0  0  0  0
  -22.9110   14.8590  -14.3530 O   0  0  0  0  0
  -21.3420   14.5140  -12.5100 O   0  0  0  0  0
  -20.4090   13.7750  -11.4280 P   0  0  0  0  0
  -21.2520   13.5490  -10.2270 O   0  0  0  0  0
  -19.6170   12.6430  -12.1220 O   0  0  0  0  0
  -19.4280   14.8640  -10.9370 O   0  0  0  0  0
  -18.3630   15.3490  -11.7440 C   0  0  0  0  0
  -17.0840   15.4550  -11.0410 C   0  0  0  0  0
  -17.1210   16.4730   -9.9860 O   0  0  0  0  0
  -16.6620   14.1590  -10.4040 C   0  0  0  0  0
  -15.3030   13.9740  -10.6880 O   0  0  0  0  0
  -16.8770   14.4550   -8.8950 C   0  0  0  0  0
  -15.9810   13.8100   -8.0320 O   0  0  0  0  0
  -16.7220   15.9350   -8.7300 C   0  0  0  0  0
  -17.6400   16.4340   -7.7520 N   0  0  0  0  0
  -19.0200   16.2380   -7.5880 C   0  0  0  0  0
  -19.5720   16.8750   -6.5720 N   0  0  0  0  0
  -18.4370   17.5330   -6.0180 C   0  0  0  0  0
  -18.3280   18.4420   -4.8920 C   0  0  0  0  0
  -19.2270   18.8010   -4.1350 O   0  0  0  0  0
  -17.0130   18.9010   -4.6340 N   0  0  0  0  0
  -15.8950   18.5590   -5.4250 C   0  0  0  0  0
  -14.7040   19.0030   -5.1390 N   0  0  0  0  0
  -16.0050   17.7540   -6.4960 N   0  0  0  0  0
  -17.2830   17.2750   -6.7510 C   0  0  0  0  0
  -22.4887   12.3841  -13.3983 H   0  0  0  0  0
  -22.3376   14.3411  -14.9228 H   0  0  0  0  0
  -19.1412   13.0018  -12.8746 H   0  0  0  0  0
  -18.6362   16.3522  -12.0711 H   0  0  0  0  0
  -18.2259   14.6387  -12.5593 H   0  0  0  0  0
  -16.3646   15.7337  -11.8110 H   0  0  0  0  0
  -17.1953   13.2691  -10.7384 H   0  0  0  0  0
  -15.0037   13.1518  -10.2930 H   0  0  0  0  0
  -17.8620   14.0777   -8.6203 H   0  0  0  0  0
  -16.1851   14.0478   -7.1246 H   0  0  0  0  0
  -15.7083   16.1939   -8.4243 H   0  0  0  0  0
  -19.5988   15.6008   -8.2566 H   0  0  0  0  0
  -14.5664   19.6096   -4.3306 H   0  0  0  0  0
  -15.2051   17.5119   -7.0807 H   0  0  0  0  0
  1  2  2  0  0  0
  1  3  1  0  0  0
  1  4  1  0  0  0
  1  5  1  0  0  0
  5  6  1  0  0  0
  6  7  2  0  0  0
  6  8  1  0  0  0
  6  9  1  0  0  0
  9 10  1  0  0  0
 10 11  1  0  0  0
 11 12  1  0  0  0
 11 13  1  0  0  0
 12 17  1  0  0  0
 13 14  1  0  0  0
 13 15  1  0  0  0
 15 16  1  0  0  0
 15 17  1  0  0  0
 17 18  1  0  0  0
 18 19  4  0  0  0
 18 28  4  0  0  0
 19 20  4  0  0  0
 20 21  4  0  0  0
 21 22  1  0  0  0
 21 28  4  0  0  0
 22 23  2  0  0  0
 22 24  1  0  0  0
 24 25  4  0  0  0
 25 26  2  0  0  0
 25 27  1  0  0  0
 27 28  1  0  0  0
  3 29  1  0  0  0
  4 30  1  0  0  0
  8 31  1  0  0  0
 10 32  1  0  0  0
 10 33  1  0  0  0
 11 34  1  0  0  0
 13 35  1  0  0  0
 14 36  1  0  0  0
 15 37  1  0  0  0
 16 38  1  0  0  0
 17 39  1  0  0  0
 19 40  1  0  0  0
 26 41  1  0  0  0
 27 42  1  0  0  0
M  END
$$$$
