3dba_ligand
  -I-interpret- 

 34 37  0  0  0  0  0  0  0  0999 V2000
   17.2480   35.9140   26.1770 P   0  0  0  0  0
   18.0360   36.1300   27.4490 O   0  0  0  0  0
   16.7590   37.0760   25.3400 O   0  0  0  0  0
   15.9490   35.0550   26.5650 O   0  0  0  0  0
   15.1960   34.4160   25.5360 C   0  0  0  0  0
   16.1740   33.5300   24.7910 C   0  0  0  0  0
   15.6770   32.8360   23.6590 O   0  0  0  0  0
   17.2910   34.3330   24.1870 C   0  0  0  0  0
   18.0470   34.9100   25.2280 O   0  0  0  0  0
   17.9870   33.2630   23.3920 C   0  0  0  0  0
   18.9460   32.6040   24.2280 O   0  0  0  0  0
   16.8310   32.3630   22.9740 C   0  0  0  0  0
   16.6140   32.4510   21.5140 N   0  0  0  0  0
   16.3490   33.5580   20.7850 C   0  0  0  0  0
   16.2260   33.2410   19.4610 N   0  0  0  0  0
   16.4080   31.9090   19.3420 C   0  0  0  0  0
   16.4340   30.9180   18.2530 C   0  0  0  0  0
   16.2290   31.2400   17.0670 O   0  0  0  0  0
   16.6630   29.6420   18.5830 N   0  0  0  0  0
   16.8910   29.2400   19.8460 C   0  0  0  0  0
   17.1290   27.9350   20.0910 N   0  0  0  0  0
   16.8970   30.0950   20.8880 N   0  0  0  0  0
   16.6690   31.4050   20.6940 C   0  0  0  0  0
   16.2818   36.7411   24.5773 H   0  0  0  0  0
   14.7391   35.1473   24.8692 H   0  0  0  0  0
   14.3740   33.8336   25.9522 H   0  0  0  0  0
   16.4545   32.8305   25.5785 H   0  0  0  0  0
   17.0301   35.1874   23.5625 H   0  0  0  0  0
   18.5553   33.6120   22.5299 H   0  0  0  0  0
   19.3923   31.9201   23.7234 H   0  0  0  0  0
   17.0418   31.3221   23.2193 H   0  0  0  0  0
   16.2476   34.5627   21.1954 H   0  0  0  0  0
   17.1348   27.2646   19.3223 H   0  0  0  0  0
   17.0757   29.7455   21.8295 H   0  0  0  0  0
  1  2  2  0  0  0
  1  3  1  0  0  0
  1  4  1  0  0  0
  1  9  1  0  0  0
  4  5  1  0  0  0
  5  6  1  0  0  0
  6  7  1  0  0  0
  6  8  1  0  0  0
  7 12  1  0  0  0
  8  9  1  0  0  0
  8 10  1  0  0  0
 10 11  1  0  0  0
 10 12  1  0  0  0
 12 13  1  0  0  0
 13 14  4  0  0  0
 13 23  4  0  0  0
 14 15  4  0  0  0
 15 16  4  0  0  0
 16 17  1  0  0  0
 16 23  4  0  0  0
 17 18  2  0  0  0
 17 19  1  0  0  0
 19 20  4  0  0  0
 20 21  2  0  0  0
 20 22  1  0  0  0
 22 23  1  0  0  0
  3 24  1  0  0  0
  5 25  1  0  0  0
  5 26  1  0  0  0
  6 27  1  0  0  0
  8 28  1  0  0  0
 10 29  1  0  0  0
 11 30  1  0  0  0
 12 31  1  0  0  0
 14 32  1  0  0  0
 21 33  1  0  0  0
 22 34  1  0  0  0
M  END
$$$$
