3djx_ligand
  -I-interpret- 

 34 35  0  0  0  0  0  0  0  0999 V2000
   30.2780   44.4680    6.9150 O   0  0  0  0  0
   30.6270   44.0450    8.2880 P   0  0  0  0  0
   32.0470   44.4880    8.5460 O   0  0  0  0  0
   29.5690   44.4670    9.2930 O   0  0  0  0  0
   30.6200   42.4180    8.3830 O   0  0  0  0  0
   30.8370   41.7730    9.6460 C   0  0  0  0  0
   30.7870   40.2390    9.6050 C   0  0  0  0  0
   29.6540   39.7590    8.8570 O   0  0  0  0  0
   32.0360   39.6140    8.9990 C   0  0  0  0  0
   32.8850   39.0930   10.0230 O   0  0  0  0  0
   31.5320   38.4190    8.2310 C   0  0  0  0  0
   31.5570   37.2970    9.1000 O   0  0  0  0  0
   30.0790   38.7310    7.9430 C   0  0  0  0  0
   29.8790   39.1710    6.5640 N   0  0  0  0  0
   29.7560   38.2130    5.5380 C   0  0  0  0  0
   29.5500   38.5950    4.2640 N   0  0  0  0  0
   29.4510   39.9020    3.9270 C   0  0  0  0  0
   29.5610   40.8690    4.9160 C   0  0  0  0  0
   29.7730   40.4830    6.2350 C   0  0  0  0  0
   29.8730   37.0180    5.8190 O   0  0  0  0  0
   29.2410   40.2600    2.6340 N   0  0  0  0  0
   32.3061   44.2277    9.4330 H   0  0  0  0  0
   29.8286   44.1763   10.1703 H   0  0  0  0  0
   30.0343   42.0974   10.3082 H   0  0  0  0  0
   31.8401   42.0476    9.9725 H   0  0  0  0  0
   30.7094   39.9395   10.6502 H   0  0  0  0  0
   32.5849   40.3456    8.4061 H   0  0  0  0  0
   33.6658   38.7037    9.6225 H   0  0  0  0  0
   32.1175   38.2182    7.3338 H   0  0  0  0  0
   31.2391   36.5226    8.6301 H   0  0  0  0  0
   29.4879   37.8249    8.0759 H   0  0  0  0  0
   29.4817   41.9256    4.6604 H   0  0  0  0  0
   29.8549   41.2424    7.0127 H   0  0  0  0  0
   29.1574   39.5429    1.9134 H   0  0  0  0  0
  1  2  2  0  0  0
  2  3  1  0  0  0
  2  4  1  0  0  0
  2  5  1  0  0  0
  5  6  1  0  0  0
  6  7  1  0  0  0
  7  8  1  0  0  0
  7  9  1  0  0  0
  8 13  1  0  0  0
  9 10  1  0  0  0
  9 11  1  0  0  0
 11 12  1  0  0  0
 11 13  1  0  0  0
 13 14  1  0  0  0
 14 15  1  0  0  0
 14 19  1  0  0  0
 15 16  1  0  0  0
 15 20  2  0  0  0
 16 17  4  0  0  0
 17 18  1  0  0  0
 17 21  2  0  0  0
 18 19  2  0  0  0
  3 22  1  0  0  0
  4 23  1  0  0  0
  6 24  1  0  0  0
  6 25  1  0  0  0
  7 26  1  0  0  0
  9 27  1  0  0  0
 10 28  1  0  0  0
 11 29  1  0  0  0
 12 30  1  0  0  0
 13 31  1  0  0  0
 18 32  1  0  0  0
 19 33  1  0  0  0
 21 34  1  0  0  0
M  END
$$$$
