3dwb_ligand
  -I-interpret- 

 70 72  0  0  0  0  0  0  0  0999 V2000
   81.6290   31.7360   40.3070 N   0  0  0  0  0
   82.3110   33.0160   40.1880 C   0  0  0  0  0
   83.7850   32.9150   40.3340 C   0  0  0  0  0
   84.5100   33.2340   39.4270 O   0  0  0  0  0
   81.7410   33.9000   41.2630 C   0  0  0  0  0
   82.1180   35.3660   41.0950 C   0  0  0  0  0
   81.3070   36.1500   42.1150 C   0  0  0  0  0
   81.8880   35.9320   39.6870 C   0  0  0  0  0
   84.2830   32.4520   41.4540 N   0  0  0  0  0
   85.7410   32.3270   41.6310 C   0  0  0  0  0
   85.9710   31.0140   42.3540 C   0  0  0  0  0
   84.9880   30.5310   42.9980 O   0  0  0  0  0
   86.2380   33.5810   42.4150 C   0  0  0  0  0
   85.5800   33.6070   43.7810 C   0  0  0  0  0
   84.3100   34.0580   44.0980 C   0  0  0  0  0
   86.0960   33.1100   44.9660 C   0  0  0  0  0
   84.0660   33.8640   45.4250 N   0  0  0  0  0
   85.1640   33.2880   45.9710 C   0  0  0  0  0
   87.3410   32.5530   45.2390 C   0  0  0  0  0
   85.4830   32.8910   47.2700 C   0  0  0  0  0
   87.6420   32.1300   46.5360 C   0  0  0  0  0
   86.7070   32.3090   47.5430 C   0  0  0  0  0
   87.1040   30.4740   42.2920 O   0  0  0  0  0
   83.0650   28.8160   40.5030 C   0  0  0  0  0
   82.0160   29.1310   39.5920 O   0  0  0  0  0
   82.6370   27.7610   41.5100 C   0  0  0  0  0
   83.7110   27.6130   42.4750 O   0  0  0  0  0
   82.4080   26.4510   40.7490 C   0  0  0  0  0
   81.9540   25.3970   41.5860 O   0  0  0  0  0
   83.7300   26.0690   40.0970 C   0  0  0  0  0
   83.6940   24.7710   39.5170 O   0  0  0  0  0
   83.9990   27.1390   39.0450 C   0  0  0  0  0
   84.1590   28.3820   39.7160 O   0  0  0  0  0
   85.2090   26.7780   38.2140 C   0  0  0  0  0
   81.8310   30.6550   39.0600 P   0  0  0  0  0
   83.1560   30.8130   38.4140 O   0  0  0  0  0
   80.5370   30.6760   38.2510 O   0  0  0  0  0
   81.0532   31.5121   41.1186 H   0  0  0  0  0
   82.1488   33.4181   39.1880 H   0  0  0  0  0
   82.1444   33.5620   42.2175 H   0  0  0  0  0
   80.6547   33.8294   41.2078 H   0  0  0  0  0
   83.1928   35.4564   41.2525 H   0  0  0  0  0
   81.6143   37.1956   42.0955 H   0  0  0  0  0
   80.2477   36.0767   41.8689 H   0  0  0  0  0
   81.4798   35.7377   43.1091 H   0  0  0  0  0
   80.8300   35.8582   39.4355 H   0  0  0  0  0
   82.1966   36.9771   39.6620 H   0  0  0  0  0
   82.4746   35.3613   38.9671 H   0  0  0  0  0
   83.6564   32.1757   42.2099 H   0  0  0  0  0
   86.3044   32.3023   40.6982 H   0  0  0  0  0
   84.2291   31.1113   42.9039 H   0  0  0  0  0
   85.9754   34.4846   41.8648 H   0  0  0  0  0
   87.3208   33.5348   42.5310 H   0  0  0  0  0
   83.6092   34.5023   43.3912 H   0  0  0  0  0
   88.0790   32.4469   44.4439 H   0  0  0  0  0
   84.7628   33.0406   48.0744 H   0  0  0  0  0
   88.6029   31.6637   46.7537 H   0  0  0  0  0
   86.9385   31.9883   48.5587 H   0  0  0  0  0
   83.3390   29.6870   41.0983 H   0  0  0  0  0
   81.7197   28.0375   42.0299 H   0  0  0  0  0
   83.4665   26.9503   43.1251 H   0  0  0  0  0
   81.6228   26.6062   40.0091 H   0  0  0  0  0
   81.8275   24.6040   41.0599 H   0  0  0  0  0
   84.5259   26.0245   40.8404 H   0  0  0  0  0
   84.5459   24.5754   39.1200 H   0  0  0  0  0
   83.1628   27.2143   38.3498 H   0  0  0  0  0
   86.0811   26.6929   38.8623 H   0  0  0  0  0
   85.0331   25.8262   37.7127 H   0  0  0  0  0
   85.3822   27.5554   37.4699 H   0  0  0  0  0
   79.7895   30.5593   38.8420 H   0  0  0  0  0
  1  2  1  0  0  0
 35  1  1  0  0  0
  2  3  1  0  0  0
  2  5  1  0  0  0
  3  4  2  0  0  0
  3  9  1  0  0  0
  5  6  1  0  0  0
  6  7  1  0  0  0
  6  8  1  0  0  0
  9 10  1  0  0  0
 10 11  1  0  0  0
 10 13  1  0  0  0
 11 12  1  0  0  0
 11 23  2  0  0  0
 13 14  1  0  0  0
 14 15  4  0  0  0
 14 16  4  0  0  0
 15 17  4  0  0  0
 16 18  4  0  0  0
 16 19  4  0  0  0
 18 17  4  0  0  0
 18 20  4  0  0  0
 19 21  4  0  0  0
 20 22  4  0  0  0
 21 22  4  0  0  0
 25 24  1  0  0  0
 24 26  1  0  0  0
 24 33  1  0  0  0
 25 35  1  0  0  0
 26 27  1  0  0  0
 26 28  1  0  0  0
 28 29  1  0  0  0
 28 30  1  0  0  0
 30 31  1  0  0  0
 30 32  1  0  0  0
 32 33  1  0  0  0
 32 34  1  0  0  0
 35 36  2  0  0  0
 35 37  1  0  0  0
  1 38  1  0  0  0
  2 39  1  0  0  0
  5 40  1  0  0  0
  5 41  1  0  0  0
  6 42  1  0  0  0
  7 43  1  0  0  0
  7 44  1  0  0  0
  7 45  1  0  0  0
  8 46  1  0  0  0
  8 47  1  0  0  0
  8 48  1  0  0  0
  9 49  1  0  0  0
 10 50  1  0  0  0
 12 51  1  0  0  0
 13 52  1  0  0  0
 13 53  1  0  0  0
 15 54  1  0  0  0
 19 55  1  0  0  0
 20 56  1  0  0  0
 21 57  1  0  0  0
 22 58  1  0  0  0
 24 59  1  0  0  0
 26 60  1  0  0  0
 27 61  1  0  0  0
 28 62  1  0  0  0
 29 63  1  0  0  0
 30 64  1  0  0  0
 31 65  1  0  0  0
 32 66  1  0  0  0
 34 67  1  0  0  0
 34 68  1  0  0  0
 34 69  1  0  0  0
 37 70  1  0  0  0
M  END
$$$$
