3evc_ligand
  -I-interpret- 

 42 44  0  0  0  0  0  0  0  0999 V2000
   27.9010   30.0440  -39.7580 O   0  0  0  0  0
   28.2980   28.4930  -39.9260 P   0  0  0  0  0
   29.3070   28.1620  -38.7160 O   0  0  0  0  0
   27.1200   27.5970  -39.9510 O   0  0  0  0  0
   29.1820   28.4080  -41.2690 O   0  0  0  0  0
   28.4870   28.4730  -42.7200 P   0  0  0  0  0
   29.4050   29.4650  -43.5940 O   0  0  0  0  0
   27.0820   28.9360  -42.6590 O   0  0  0  0  0
   28.6500   27.0160  -43.3840 O   0  0  0  0  0
   27.6360   26.0250  -43.2270 C   0  0  0  0  0
   27.7570   24.9880  -44.3210 C   0  0  0  0  0
   27.3640   25.5760  -45.5890 O   0  0  0  0  0
   29.1690   24.4780  -44.5600 C   0  0  0  0  0
   29.4860   23.4180  -43.6670 O   0  0  0  0  0
   29.1130   24.0160  -46.0100 C   0  0  0  0  0
   28.5440   22.7290  -46.1510 O   0  0  0  0  0
   28.1850   25.0680  -46.6280 C   0  0  0  0  0
   28.8810   26.1940  -47.2460 N   0  0  0  0  0
   29.6100   27.1740  -46.6120 C   0  0  0  0  0
   30.1010   28.0620  -47.4350 N   0  0  0  0  0
   29.6760   27.6410  -48.6880 C   0  0  0  0  0
   29.8970   28.2060  -49.9730 C   0  0  0  0  0
   30.5420   29.2200  -50.2670 O   0  0  0  0  0
   29.2770   27.4620  -50.9720 N   0  0  0  0  0
   28.5440   26.3180  -50.7670 C   0  0  0  0  0
   28.0190   25.7430  -51.8600 N   0  0  0  0  0
   28.3380   25.7780  -49.5760 N   0  0  0  0  0
   28.9260   26.4880  -48.5900 C   0  0  0  0  0
   28.6987   30.5781  -39.7480 H   0  0  0  0  0
   30.0502   28.7690  -38.7454 H   0  0  0  0  0
   30.3059   29.1338  -43.6110 H   0  0  0  0  0
   26.6566   26.4996  -43.2879 H   0  0  0  0  0
   27.7533   25.5406  -42.2576 H   0  0  0  0  0
   27.1265   24.1644  -43.9861 H   0  0  0  0  0
   29.9449   25.2234  -44.3857 H   0  0  0  0  0
   30.3805   23.1141  -43.8376 H   0  0  0  0  0
   30.0995   23.9351  -46.4665 H   0  0  0  0  0
   28.5320   22.4857  -47.0796 H   0  0  0  0  0
   27.6246   24.5747  -47.4222 H   0  0  0  0  0
   29.7623   27.2061  -45.5332 H   0  0  0  0  0
   28.1742   26.1577  -52.7789 H   0  0  0  0  0
   27.7987   24.9261  -49.4217 H   0  0  0  0  0
  1  2  1  0  0  0
  2  3  1  0  0  0
  2  4  2  0  0  0
  2  5  1  0  0  0
  5  6  1  0  0  0
  6  7  1  0  0  0
  6  8  2  0  0  0
  6  9  1  0  0  0
  9 10  1  0  0  0
 10 11  1  0  0  0
 11 12  1  0  0  0
 11 13  1  0  0  0
 12 17  1  0  0  0
 13 14  1  0  0  0
 13 15  1  0  0  0
 15 16  1  0  0  0
 15 17  1  0  0  0
 17 18  1  0  0  0
 18 19  4  0  0  0
 18 28  4  0  0  0
 19 20  4  0  0  0
 20 21  4  0  0  0
 21 22  1  0  0  0
 21 28  4  0  0  0
 22 23  2  0  0  0
 22 24  1  0  0  0
 24 25  4  0  0  0
 25 26  2  0  0  0
 25 27  1  0  0  0
 27 28  1  0  0  0
  1 29  1  0  0  0
  3 30  1  0  0  0
  7 31  1  0  0  0
 10 32  1  0  0  0
 10 33  1  0  0  0
 11 34  1  0  0  0
 13 35  1  0  0  0
 14 36  1  0  0  0
 15 37  1  0  0  0
 16 38  1  0  0  0
 17 39  1  0  0  0
 19 40  1  0  0  0
 26 41  1  0  0  0
 27 42  1  0  0  0
M  END
$$$$
