3evd_ligand
  -I-interpret- 

 47 49  0  0  0  0  0  0  0  0999 V2000
   27.9710   30.7380  -39.5880 P   0  0  0  0  0
   26.6240   31.5970  -39.3930 O   0  0  0  0  0
   28.9720   31.2320  -38.4290 O   0  0  0  0  0
   28.5450   30.9060  -40.9410 O   0  0  0  0  0
   27.5810   29.2110  -39.2650 O   0  0  0  0  0
   28.5580   27.9930  -39.6620 P   0  0  0  0  0
   29.7460   28.0240  -38.5750 O   0  0  0  0  0
   27.8460   26.6950  -39.6910 O   0  0  0  0  0
   29.2460   28.3410  -41.0790 O   0  0  0  0  0
   28.4870   28.0480  -42.4730 P   0  0  0  0  0
   29.3830   28.7670  -43.6040 O   0  0  0  0  0
   27.0980   28.5630  -42.4560 O   0  0  0  0  0
   28.5910   26.4690  -42.7920 O   0  0  0  0  0
   27.4640   25.7480  -43.3330 C   0  0  0  0  0
   27.8970   24.7890  -44.4400 C   0  0  0  0  0
   27.7520   25.4000  -45.7460 O   0  0  0  0  0
   29.3310   24.2900  -44.4150 C   0  0  0  0  0
   29.4800   23.2070  -43.5090 O   0  0  0  0  0
   29.5660   23.8440  -45.8600 C   0  0  0  0  0
   29.1700   22.5110  -46.1110 O   0  0  0  0  0
   28.6860   24.8210  -46.6470 C   0  0  0  0  0
   29.4030   25.8960  -47.3310 N   0  0  0  0  0
   30.0590   26.9590  -46.7530 C   0  0  0  0  0
   30.5660   27.7830  -47.6290 N   0  0  0  0  0
   30.2370   27.2320  -48.8580 C   0  0  0  0  0
   30.5070   27.6910  -50.1740 C   0  0  0  0  0
   31.1040   28.7150  -50.5240 O   0  0  0  0  0
   29.9970   26.8230  -51.1330 N   0  0  0  0  0
   29.3120   25.6640  -50.8640 C   0  0  0  0  0
   28.9060   24.9570  -51.9260 N   0  0  0  0  0
   29.0470   25.2260  -49.6420 N   0  0  0  0  0
   29.5340   26.0570  -48.6940 C   0  0  0  0  0
   26.2846   31.4608  -38.5054 H   0  0  0  0  0
   28.5569   31.1035  -37.5730 H   0  0  0  0  0
   30.1745   28.8828  -38.5953 H   0  0  0  0  0
   30.2726   28.4069  -43.5827 H   0  0  0  0  0
   26.7614   26.4677  -43.7531 H   0  0  0  0  0
   27.0064   25.1682  -42.5315 H   0  0  0  0  0
   27.2378   23.9415  -44.2520 H   0  0  0  0  0
   30.0435   25.0438  -44.0799 H   0  0  0  0  0
   30.3934   22.9115  -43.5127 H   0  0  0  0  0
   30.6231   23.8591  -46.1253 H   0  0  0  0  0
   29.3429   22.2947  -47.0302 H   0  0  0  0  0
   28.2135   24.2351  -47.4354 H   0  0  0  0  0
   30.1461   27.0982  -45.6754 H   0  0  0  0  0
   29.1107   25.2892  -52.8684 H   0  0  0  0  0
   28.5371   24.3657  -49.4410 H   0  0  0  0  0
  1  2  1  0  0  0
  1  3  1  0  0  0
  1  4  2  0  0  0
  1  5  1  0  0  0
  5  6  1  0  0  0
  6  7  1  0  0  0
  6  8  2  0  0  0
  6  9  1  0  0  0
  9 10  1  0  0  0
 10 11  1  0  0  0
 10 12  2  0  0  0
 10 13  1  0  0  0
 13 14  1  0  0  0
 14 15  1  0  0  0
 15 16  1  0  0  0
 15 17  1  0  0  0
 16 21  1  0  0  0
 17 18  1  0  0  0
 17 19  1  0  0  0
 19 20  1  0  0  0
 19 21  1  0  0  0
 21 22  1  0  0  0
 22 23  4  0  0  0
 22 32  4  0  0  0
 23 24  4  0  0  0
 24 25  4  0  0  0
 25 26  1  0  0  0
 25 32  4  0  0  0
 26 27  2  0  0  0
 26 28  1  0  0  0
 28 29  4  0  0  0
 29 30  2  0  0  0
 29 31  1  0  0  0
 31 32  1  0  0  0
  2 33  1  0  0  0
  3 34  1  0  0  0
  7 35  1  0  0  0
 11 36  1  0  0  0
 14 37  1  0  0  0
 14 38  1  0  0  0
 15 39  1  0  0  0
 17 40  1  0  0  0
 18 41  1  0  0  0
 19 42  1  0  0  0
 20 43  1  0  0  0
 21 44  1  0  0  0
 23 45  1  0  0  0
 30 46  1  0  0  0
 31 47  1  0  0  0
M  END
$$$$
