3fe7_ligand
  -I-interpret- 

156160  0  0  0  0  0  0  0  0999 V2000
   13.9620   23.9290    4.3630 C   0  0  0  0  0
   15.0330   23.6680    4.8800 O   0  0  0  0  0
   13.3150   25.2820    4.4590 C   0  0  0  0  0
   13.2810   23.0530    3.6130 N   0  0  0  0  0
   13.7770   21.6790    3.4410 C   0  0  0  0  0
   15.1650   21.5700    2.8790 C   0  0  0  0  0
   16.0180   20.8670    3.4420 O   0  0  0  0  0
   12.7900   20.8310    2.5730 C   0  0  0  0  0
   13.3790   19.4540    2.3370 C   0  0  0  0  0
   13.4330   18.4830    3.3270 C   0  0  0  0  0
   13.9260   19.1320    1.0840 C   0  0  0  0  0
   14.0260   17.2430    3.0650 C   0  0  0  0  0
   14.5110   17.9030    0.8070 C   0  0  0  0  0
   14.5500   16.9320    1.8130 C   0  0  0  0  0
   15.4290   22.2470    1.7690 N   0  0  0  0  0
   16.7600   22.1190    1.1830 C   0  0  0  0  0
   17.8220   22.6750    2.0680 C   0  0  0  0  0
   18.9240   22.0840    2.1290 O   0  0  0  0  0
   16.7020   22.8340   -0.1510 C   0  0  0  0  0
   17.8980   22.4980   -1.0580 C   0  0  0  0  0
   18.2420   20.7710   -1.3760 S   0  0  0  0  0
   16.8270   19.8950   -1.7770 C   0  0  0  0  0
   17.6090   23.7560    2.7780 N   0  0  0  0  0
   18.6090   24.3300    3.6910 C   0  0  0  0  0
   19.0250   23.2360    4.6750 C   0  0  0  0  0
   20.2290   23.0240    4.9820 O   0  0  0  0  0
   17.9250   25.4180    4.4860 C   0  0  0  0  0
   19.8250   24.8810    2.9220 C   0  0  0  0  0
   18.0370   22.4690    5.2030 N   0  0  0  0  0
   18.3900   21.3890    6.1140 C   0  0  0  0  0
   17.1150   20.8230    6.7640 C   0  0  0  0  0
   16.4320   21.6170    7.8620 C   0  0  0  0  0
   15.1160   22.0720    7.6560 C   0  0  0  0  0
   14.4390   22.7820    8.6620 C   0  0  0  0  0
   17.1000   21.8620    9.0650 C   0  0  0  0  0
   16.4140   22.5810   10.0700 C   0  0  0  0  0
   15.1160   23.0330    9.8530 C   0  0  0  0  0
   14.4260   23.8090   10.9730 C   0  0  0  0  0
   14.7280   25.6060   10.8780 P   0  0  0  0  0
   16.1630   25.7530   11.3280 O   0  0  0  0  0
   14.4690   26.0710    9.4650 O   0  0  0  0  0
   13.7500   26.2810   11.8360 O   0  0  0  0  0
   19.0510   20.2460    5.4060 C   0  0  0  0  0
   20.0880   19.7280    5.8500 O   0  0  0  0  0
   18.4800   19.7930    4.2740 N   0  0  0  0  0
   19.0410   18.6410    3.5700 C   0  0  0  0  0
   20.4670   18.8170    3.1190 C   0  0  0  0  0
   21.2790   17.8990    3.3010 O   0  0  0  0  0
   18.0930   18.3630    2.3450 C   0  0  0  0  0
   18.5330   17.0880    1.7120 C   0  0  0  0  0
   19.3950   16.9600    0.6240 C   0  0  0  0  0
   18.2120   15.7190    2.1170 C   0  0  0  0  0
   19.6150   15.6330    0.3430 N   0  0  0  0  0
   18.9160   14.8830    1.2320 C   0  0  0  0  0
   17.4040   15.2160    3.1480 C   0  0  0  0  0
   18.7910   13.5120    1.3590 C   0  0  0  0  0
   17.2860   13.8340    3.2450 C   0  0  0  0  0
   17.9780   13.0060    2.3760 C   0  0  0  0  0
   20.7400   19.9750    2.5260 N   0  0  0  0  0
   22.1140   20.1920    2.0340 C   0  0  0  0  0
   23.1290   20.3160    3.1450 C   0  0  0  0  0
   24.3380   20.2820    2.8570 O   0  0  0  0  0
   22.1970   21.4790    1.1990 C   0  0  0  0  0
   21.4280   21.6760   -0.1170 C   0  0  0  0  0
   21.6080   23.1350   -0.6270 C   0  0  0  0  0
   22.0790   24.0480    0.1040 O   0  0  0  0  0
   21.2580   23.4300   -1.7900 O   0  0  0  0  0
   24.4910   21.7350    5.6620 C   0  0  0  0  0
   23.2930   21.6430    6.5800 C   0  0  0  0  0
   23.5400   20.5360    5.5530 C   0  0  0  0  0
   23.9460   19.2100    6.0870 C   0  0  0  0  0
   24.7660   19.1330    7.0350 O   0  0  0  0  0
   22.6570   20.4500    4.3890 N   0  0  0  0  0
   23.4680   18.1000    5.5540 N   0  0  0  0  0
   23.8630   16.7780    6.0550 C   0  0  0  0  0
   25.3290   16.5160    5.7940 C   0  0  0  0  0
   25.8700   16.8620    4.7500 O   0  0  0  0  0
   22.9980   15.6740    5.3840 C   0  0  0  0  0
   21.5660   15.6210    5.9320 C   0  0  0  0  0
   20.6940   14.7310    5.0330 C   0  0  0  0  0
   21.5590   15.0460    7.3550 C   0  0  0  0  0
   26.0270   15.9130    6.7450 N   0  0  0  0  0
   13.1342   25.5234    5.5065 H   0  0  0  0  0
   13.9749   26.0308    4.0210 H   0  0  0  0  0
   12.3683   25.2697    3.9190 H   0  0  0  0  0
   12.4140   23.3401    3.1588 H   0  0  0  0  0
   13.8316   21.2806    4.4541 H   0  0  0  0  0
   12.6306   21.3268    1.6155 H   0  0  0  0  0
   11.8382   20.7342    3.0953 H   0  0  0  0  0
   13.0122   18.6869    4.3116 H   0  0  0  0  0
   13.8898   19.8808    0.2928 H   0  0  0  0  0
   14.0791   16.5011    3.8618 H   0  0  0  0  0
   14.9324   17.6988   -0.1773 H   0  0  0  0  0
   14.9825   15.9502    1.6205 H   0  0  0  0  0
   14.7212   22.8408    1.3367 H   0  0  0  0  0
   17.0268   21.0700    1.0541 H   0  0  0  0  0
   16.7206   23.9064    0.0433 H   0  0  0  0  0
   15.7942   22.5143   -0.6626 H   0  0  0  0  0
   18.7758   22.8788   -0.5359 H   0  0  0  0  0
   17.6582   22.9311   -2.0291 H   0  0  0  0  0
   16.1184   19.9539   -0.9508 H   0  0  0  0  0
   16.3782   20.3228   -2.6735 H   0  0  0  0  0
   17.0866   18.8525   -1.9611 H   0  0  0  0  0
   16.7056   24.2219    2.6932 H   0  0  0  0  0
   17.5471   26.1808    3.8052 H   0  0  0  0  0
   17.0961   24.9886    5.0487 H   0  0  0  0  0
   18.6401   25.8666    5.1755 H   0  0  0  0  0
   20.2937   24.0736    2.3594 H   0  0  0  0  0
   19.4960   25.6609    2.2352 H   0  0  0  0  0
   20.5425   25.2969    3.6293 H   0  0  0  0  0
   17.0612   22.6467    4.9650 H   0  0  0  0  0
   19.0748   21.8122    6.8489 H   0  0  0  0  0
   17.4325   19.8973    7.2439 H   0  0  0  0  0
   16.3851   20.7775    5.9558 H   0  0  0  0  0
   14.6176   21.8718    6.7075 H   0  0  0  0  0
   13.4152   23.1259    8.5148 H   0  0  0  0  0
   18.1191   21.5093    9.2233 H   0  0  0  0  0
   16.9052   22.7829   11.0219 H   0  0  0  0  0
   14.8268   23.4528   11.9220 H   0  0  0  0  0
   13.3523   23.6455   10.8801 H   0  0  0  0  0
   16.2479   25.4383   12.2310 H   0  0  0  0  0
   13.9216   25.9800   12.7313 H   0  0  0  0  0
   17.6500   20.2569    3.9049 H   0  0  0  0  0
   19.0864   17.7984    4.2600 H   0  0  0  0  0
   18.1498   19.1819    1.6279 H   0  0  0  0  0
   17.0577   18.2843    2.6767 H   0  0  0  0  0
   19.8322   17.7937    0.0745 H   0  0  0  0  0
   16.8907   15.8803    3.8432 H   0  0  0  0  0
   19.3158   12.8401    0.6799 H   0  0  0  0  0
   16.6440   13.3986    4.0107 H   0  0  0  0  0
   17.8851   11.9259    2.4895 H   0  0  0  0  0
   20.0222   20.6910    2.4146 H   0  0  0  0  0
   22.3475   19.3117    1.4351 H   0  0  0  0  0
   23.2397   21.5018    0.8823 H   0  0  0  0  0
   21.7586   22.2295    1.8567 H   0  0  0  0  0
   20.3688   21.4850    0.0552 H   0  0  0  0  0
   21.8157   20.9847   -0.8652 H   0  0  0  0  0
   22.3043   23.6841    0.9633 H   0  0  0  0  0
   25.5624   21.9214    5.7363 H   0  0  0  0  0
   24.9589   22.4667    5.0034 H   0  0  0  0  0
   22.4702   22.2779    6.9087 H   0  0  0  0  0
   23.0762   21.7304    7.6446 H   0  0  0  0  0
   21.6479   20.4937    4.5314 H   0  0  0  0  0
   22.8099   18.1628    4.7772 H   0  0  0  0  0
   23.6987   16.7584    7.1324 H   0  0  0  0  0
   23.4684   14.7124    5.5890 H   0  0  0  0  0
   22.9385   15.8993    4.3192 H   0  0  0  0  0
   21.1674   16.6354    5.9487 H   0  0  0  0  0
   20.6780   15.1415    4.0234 H   0  0  0  0  0
   21.1082   13.7230    5.0103 H   0  0  0  0  0
   19.6793   14.6993    5.4298 H   0  0  0  0  0
   21.9717   14.0373    7.3399 H   0  0  0  0  0
   22.1650   15.6782    8.0039 H   0  0  0  0  0
   20.5353   15.0156    7.7282 H   0  0  0  0  0
   27.0221   15.7335    6.6113 H   0  0  0  0  0
   25.5692   15.6282    7.6109 H   0  0  0  0  0
  1  2  2  0  0  0
  1  3  1  0  0  0
  4  1  1  0  0  0
  5  4  1  0  0  0
  6  5  1  0  0  0
  5  8  1  0  0  0
  6  7  2  0  0  0
 15  6  1  0  0  0
  8  9  1  0  0  0
  9 10  4  0  0  0
  9 11  4  0  0  0
 10 12  4  0  0  0
 11 13  4  0  0  0
 12 14  4  0  0  0
 13 14  4  0  0  0
 16 15  1  0  0  0
 17 16  1  0  0  0
 16 19  1  0  0  0
 17 18  2  0  0  0
 23 17  1  0  0  0
 19 20  1  0  0  0
 20 21  1  0  0  0
 21 22  1  0  0  0
 24 23  1  0  0  0
 25 24  1  0  0  0
 24 27  1  0  0  0
 24 28  1  0  0  0
 25 26  2  0  0  0
 29 25  1  0  0  0
 30 29  1  0  0  0
 30 31  1  0  0  0
 43 30  1  0  0  0
 31 32  1  0  0  0
 32 33  4  0  0  0
 32 35  4  0  0  0
 33 34  4  0  0  0
 34 37  4  0  0  0
 35 36  4  0  0  0
 36 37  4  0  0  0
 37 38  1  0  0  0
 38 39  1  0  0  0
 39 40  1  0  0  0
 39 41  2  0  0  0
 39 42  1  0  0  0
 43 44  2  0  0  0
 45 43  1  0  0  0
 46 45  1  0  0  0
 47 46  1  0  0  0
 46 49  1  0  0  0
 47 48  2  0  0  0
 59 47  1  0  0  0
 49 50  1  0  0  0
 50 51  4  0  0  0
 50 52  4  0  0  0
 51 53  4  0  0  0
 52 54  4  0  0  0
 52 55  4  0  0  0
 54 53  4  0  0  0
 54 56  4  0  0  0
 55 57  4  0  0  0
 56 58  4  0  0  0
 57 58  4  0  0  0
 60 59  1  0  0  0
 61 60  1  0  0  0
 60 63  1  0  0  0
 61 62  2  0  0  0
 73 61  1  0  0  0
 63 64  1  0  0  0
 64 65  1  0  0  0
 65 66  1  0  0  0
 65 67  2  0  0  0
 69 68  1  0  0  0
 70 68  1  0  0  0
 70 69  1  0  0  0
 70 71  1  0  0  0
 70 73  1  0  0  0
 71 72  2  0  0  0
 71 74  1  0  0  0
 74 75  1  0  0  0
 75 76  1  0  0  0
 75 78  1  0  0  0
 76 77  2  0  0  0
 76 82  1  0  0  0
 78 79  1  0  0  0
 79 80  1  0  0  0
 79 81  1  0  0  0
  3 83  1  0  0  0
  3 84  1  0  0  0
  3 85  1  0  0  0
  4 86  1  0  0  0
  5 87  1  0  0  0
  8 88  1  0  0  0
  8 89  1  0  0  0
 10 90  1  0  0  0
 11 91  1  0  0  0
 12 92  1  0  0  0
 13 93  1  0  0  0
 14 94  1  0  0  0
 15 95  1  0  0  0
 16 96  1  0  0  0
 19 97  1  0  0  0
 19 98  1  0  0  0
 20 99  1  0  0  0
 20100  1  0  0  0
 22101  1  0  0  0
 22102  1  0  0  0
 22103  1  0  0  0
 23104  1  0  0  0
 27105  1  0  0  0
 27106  1  0  0  0
 27107  1  0  0  0
 28108  1  0  0  0
 28109  1  0  0  0
 28110  1  0  0  0
 29111  1  0  0  0
 30112  1  0  0  0
 31113  1  0  0  0
 31114  1  0  0  0
 33115  1  0  0  0
 34116  1  0  0  0
 35117  1  0  0  0
 36118  1  0  0  0
 38119  1  0  0  0
 38120  1  0  0  0
 40121  1  0  0  0
 42122  1  0  0  0
 45123  1  0  0  0
 46124  1  0  0  0
 49125  1  0  0  0
 49126  1  0  0  0
 51127  1  0  0  0
 55128  1  0  0  0
 56129  1  0  0  0
 57130  1  0  0  0
 58131  1  0  0  0
 59132  1  0  0  0
 60133  1  0  0  0
 63134  1  0  0  0
 63135  1  0  0  0
 64136  1  0  0  0
 64137  1  0  0  0
 66138  1  0  0  0
 68139  1  0  0  0
 68140  1  0  0  0
 69141  1  0  0  0
 69142  1  0  0  0
 73143  1  0  0  0
 74144  1  0  0  0
 75145  1  0  0  0
 78146  1  0  0  0
 78147  1  0  0  0
 79148  1  0  0  0
 80149  1  0  0  0
 80150  1  0  0  0
 80151  1  0  0  0
 81152  1  0  0  0
 81153  1  0  0  0
 81154  1  0  0  0
 82155  1  0  0  0
 82156  1  0  0  0
M  END
$$$$
