3fea_ligand
  -I-interpret- 

156160  0  0  0  0  0  0  0  0999 V2000
   12.7410   24.3730    5.1550 C   0  0  0  0  0
   13.8220   24.1170    5.6650 O   0  0  0  0  0
   12.0720   25.6920    5.4760 C   0  0  0  0  0
   12.0730   23.5490    4.3210 N   0  0  0  0  0
   12.5930   22.2240    3.9770 C   0  0  0  0  0
   14.0020   22.2590    3.4340 C   0  0  0  0  0
   14.8430   21.4850    3.9070 O   0  0  0  0  0
   11.6380   21.4800    2.9980 C   0  0  0  0  0
   12.2710   20.1520    2.5590 C   0  0  0  0  0
   12.2510   19.0600    3.4260 C   0  0  0  0  0
   12.8920   20.0090    1.3140 C   0  0  0  0  0
   12.8240   17.8410    3.0540 C   0  0  0  0  0
   13.4780   18.7860    0.9490 C   0  0  0  0  0
   13.4600   17.6890    1.8080 C   0  0  0  0  0
   14.2580   23.1060    2.4400 N   0  0  0  0  0
   15.5960   23.1080    1.8370 C   0  0  0  0  0
   16.6900   23.4350    2.8110 C   0  0  0  0  0
   17.7200   22.7520    2.7670 O   0  0  0  0  0
   15.5500   24.1830    0.7360 C   0  0  0  0  0
   16.4500   23.8500   -0.4820 C   0  0  0  0  0
   15.4340   23.9460   -1.9910 S   0  0  0  0  0
   14.9140   25.6950   -1.9650 C   0  0  0  0  0
   16.5020   24.4260    3.6910 N   0  0  0  0  0
   17.5150   24.8050    4.6790 C   0  0  0  0  0
   17.8570   23.5630    5.4780 C   0  0  0  0  0
   19.0240   23.2750    5.7480 O   0  0  0  0  0
   16.8590   25.8020    5.6560 C   0  0  0  0  0
   18.7760   25.3920    3.9560 C   0  0  0  0  0
   16.8490   22.7770    5.9190 N   0  0  0  0  0
   17.1310   21.5860    6.6770 C   0  0  0  0  0
   15.8290   20.9660    7.2520 C   0  0  0  0  0
   15.2160   21.7150    8.4210 C   0  0  0  0  0
   13.9450   22.2720    8.2300 C   0  0  0  0  0
   13.3100   22.9530    9.2870 C   0  0  0  0  0
   15.8540   21.7690    9.6670 C   0  0  0  0  0
   15.2100   22.4360   10.7330 C   0  0  0  0  0
   13.9570   23.0400   10.5260 C   0  0  0  0  0
   13.2560   23.7490   11.7040 C   0  0  0  0  0
   13.7330   25.4730   11.7940 P   0  0  0  0  0
   15.1900   25.6780   12.0130 O   0  0  0  0  0
   13.1310   26.1120   10.4570 O   0  0  0  0  0
   12.8220   26.0610   12.9860 O   0  0  0  0  0
   17.8150   20.5170    5.8400 C   0  0  0  0  0
   18.8010   19.9170    6.2700 O   0  0  0  0  0
   17.3060   20.2500    4.6160 N   0  0  0  0  0
   17.8740   19.1840    3.7920 C   0  0  0  0  0
   17.0420   19.0400    2.4700 C   0  0  0  0  0
   17.4590   17.8250    1.7200 C   0  0  0  0  0
   17.0320   16.4570    2.0670 C   0  0  0  0  0
   16.2040   15.9090    3.0350 C   0  0  0  0  0
   17.7150   15.6490    1.1430 C   0  0  0  0  0
   18.4610   16.4470    0.3330 N   0  0  0  0  0
   18.3280   17.7260    0.6820 C   0  0  0  0  0
   17.5410   14.2660    1.1870 C   0  0  0  0  0
   16.6830   13.7610    2.1580 C   0  0  0  0  0
   16.4280   12.0610    2.2090 Cl  0  0  0  0  0
   15.9890   14.5570    3.0820 C   0  0  0  0  0
   19.3500   19.3990    3.4690 C   0  0  0  0  0
   20.1450   18.4430    3.5190 O   0  0  0  0  0
   19.7000   20.6390    3.1590 N   0  0  0  0  0
   21.0900   20.9750    2.8170 C   0  0  0  0  0
   21.9960   20.7290    4.0080 C   0  0  0  0  0
   23.2040   20.5800    3.7800 O   0  0  0  0  0
   21.1720   22.4470    2.3880 C   0  0  0  0  0
   20.5480   22.7030    0.9920 C   0  0  0  0  0
   20.7090   24.1470    0.5680 C   0  0  0  0  0
   21.1530   25.0460    1.2850 O   0  0  0  0  0
   20.3330   24.4180   -0.6730 O   0  0  0  0  0
   23.2930   21.5450    6.8340 C   0  0  0  0  0
   21.9710   21.4560    7.6130 C   0  0  0  0  0
   22.2490   20.4720    6.4600 C   0  0  0  0  0
   22.5180   19.0460    6.7640 C   0  0  0  0  0
   23.2070   18.7300    7.7450 O   0  0  0  0  0
   21.4760   20.6830    5.2410 N   0  0  0  0  0
   22.0290   18.0740    6.0260 N   0  0  0  0  0
   22.2520   16.6700    6.3420 C   0  0  0  0  0
   23.7250   16.3050    6.3210 C   0  0  0  0  0
   24.4430   16.6200    5.3690 O   0  0  0  0  0
   21.4710   15.7640    5.3310 C   0  0  0  0  0
   20.0490   15.4460    5.8510 C   0  0  0  0  0
   19.1880   14.9110    4.6740 C   0  0  0  0  0
   20.0740   14.3920    6.9720 C   0  0  0  0  0
   24.1860   15.5850    7.3650 N   0  0  0  0  0
   11.8903   25.7541    6.5490 H   0  0  0  0  0
   12.7212   26.5116    5.1680 H   0  0  0  0  0
   11.1243   25.7569    4.9414 H   0  0  0  0  0
   11.1862   23.8559    3.9213 H   0  0  0  0  0
   12.6372   21.6654    4.9119 H   0  0  0  0  0
   11.4655   22.1034    2.1207 H   0  0  0  0  0
   10.6925   21.2785    3.5016 H   0  0  0  0  0
   11.7829   19.1584    4.4054 H   0  0  0  0  0
   12.9213   20.8515    0.6231 H   0  0  0  0  0
   12.7776   16.9948    3.7395 H   0  0  0  0  0
   13.9565   18.6930   -0.0259 H   0  0  0  0  0
   13.9234   16.7441    1.5241 H   0  0  0  0  0
   13.5364   23.7432    2.1029 H   0  0  0  0  0
   15.8277   22.1113    1.4615 H   0  0  0  0  0
   15.9128   25.1150    1.1694 H   0  0  0  0  0
   14.5220   24.2462    0.3792 H   0  0  0  0  0
   16.8660   22.8481   -0.3755 H   0  0  0  0  0
   17.2746   24.5603   -0.5417 H   0  0  0  0  0
   14.3520   25.8921   -1.0521 H   0  0  0  0  0
   15.7956   26.3353   -1.9959 H   0  0  0  0  0
   14.2850   25.8986   -2.8316 H   0  0  0  0  0
   15.6194   24.9369    3.6729 H   0  0  0  0  0
   16.5175   26.6779    5.1044 H   0  0  0  0  0
   16.0095   25.3246    6.1444 H   0  0  0  0  0
   17.5881   26.1056    6.4072 H   0  0  0  0  0
   19.1918   24.6398    3.2856 H   0  0  0  0  0
   18.4871   26.2724    3.3819 H   0  0  0  0  0
   19.5228   25.6705    4.6996 H   0  0  0  0  0
   15.8824   23.0296    5.7133 H   0  0  0  0  0
   17.7965   21.8993    7.4814 H   0  0  0  0  0
   16.0914   19.9740    7.6197 H   0  0  0  0  0
   15.0928   20.9848    6.4484 H   0  0  0  0  0
   13.4479   22.1786    7.2645 H   0  0  0  0  0
   12.3291   23.4058    9.1426 H   0  0  0  0  0
   16.8296   21.3048    9.8114 H   0  0  0  0  0
   15.6833   22.4824   11.7138 H   0  0  0  0  0
   13.5487   23.2570   12.6316 H   0  0  0  0  0
   12.1779   23.6925   11.5537 H   0  0  0  0  0
   12.1906   25.9251   10.4096 H   0  0  0  0  0
   11.8963   25.8997   12.7892 H   0  0  0  0  0
   16.5196   20.7965    4.2648 H   0  0  0  0  0
   17.8169   18.2634    4.3728 H   0  0  0  0  0
   17.2146   19.9171    1.8463 H   0  0  0  0  0
   15.9857   18.9532    2.7247 H   0  0  0  0  0
   15.7205   16.5591    3.7641 H   0  0  0  0  0
   18.8385   18.5638    0.2071 H   0  0  0  0  0
   18.0568   13.6073    0.4883 H   0  0  0  0  0
   15.3058   14.1169    3.8084 H   0  0  0  0  0
   18.9924   21.3736    3.1576 H   0  0  0  0  0
   21.4185   20.3414    1.9931 H   0  0  0  0  0
   22.2257   22.7213    2.3375 H   0  0  0  0  0
   20.6152   23.0377    3.1154 H   0  0  0  0  0
   19.4833   22.4750    1.0429 H   0  0  0  0  0
   21.0580   22.0710    0.2650 H   0  0  0  0  0
   20.0140   23.6153   -1.0920 H   0  0  0  0  0
   24.3611   21.6085    7.0417 H   0  0  0  0  0
   23.8998   22.3026    6.3381 H   0  0  0  0  0
   21.1728   22.1202    7.9445 H   0  0  0  0  0
   21.6350   21.4247    8.6495 H   0  0  0  0  0
   20.4676   20.8041    5.3346 H   0  0  0  0  0
   21.4742   18.3115    5.2037 H   0  0  0  0  0
   21.8838   16.5024    7.3542 H   0  0  0  0  0
   22.0154   14.8275    5.2096 H   0  0  0  0  0
   21.3849   16.2940    4.3824 H   0  0  0  0  0
   19.6245   16.3637    6.2580 H   0  0  0  0  0
   19.1332   15.6683    3.8920 H   0  0  0  0  0
   19.6446   14.0058    4.2736 H   0  0  0  0  0
   18.1841   14.6847    5.0334 H   0  0  0  0  0
   20.5148   13.4702    6.5925 H   0  0  0  0  0
   20.6691   14.7644    7.8059 H   0  0  0  0  0
   19.0558   14.1975    7.3089 H   0  0  0  0  0
   25.1597   15.2817    7.3851 H   0  0  0  0  0
   23.5608   15.3441    8.1341 H   0  0  0  0  0
  1  2  2  0  0  0
  1  3  1  0  0  0
  4  1  1  0  0  0
  5  4  1  0  0  0
  6  5  1  0  0  0
  5  8  1  0  0  0
  6  7  2  0  0  0
 15  6  1  0  0  0
  8  9  1  0  0  0
  9 10  4  0  0  0
  9 11  4  0  0  0
 10 12  4  0  0  0
 11 13  4  0  0  0
 12 14  4  0  0  0
 13 14  4  0  0  0
 16 15  1  0  0  0
 17 16  1  0  0  0
 16 19  1  0  0  0
 17 18  2  0  0  0
 23 17  1  0  0  0
 19 20  1  0  0  0
 20 21  1  0  0  0
 21 22  1  0  0  0
 24 23  1  0  0  0
 25 24  1  0  0  0
 24 27  1  0  0  0
 24 28  1  0  0  0
 25 26  2  0  0  0
 29 25  1  0  0  0
 30 29  1  0  0  0
 30 31  1  0  0  0
 43 30  1  0  0  0
 31 32  1  0  0  0
 32 33  4  0  0  0
 32 35  4  0  0  0
 33 34  4  0  0  0
 34 37  4  0  0  0
 35 36  4  0  0  0
 36 37  4  0  0  0
 37 38  1  0  0  0
 38 39  1  0  0  0
 39 40  2  0  0  0
 39 41  1  0  0  0
 39 42  1  0  0  0
 43 44  2  0  0  0
 45 43  1  0  0  0
 46 45  1  0  0  0
 46 47  1  0  0  0
 58 46  1  0  0  0
 47 48  1  0  0  0
 48 49  4  0  0  0
 48 53  4  0  0  0
 49 50  4  0  0  0
 49 51  4  0  0  0
 50 57  4  0  0  0
 52 51  4  0  0  0
 51 54  4  0  0  0
 53 52  4  0  0  0
 54 55  4  0  0  0
 55 56  1  0  0  0
 57 55  4  0  0  0
 58 59  2  0  0  0
 60 58  1  0  0  0
 61 60  1  0  0  0
 62 61  1  0  0  0
 61 64  1  0  0  0
 62 63  2  0  0  0
 74 62  1  0  0  0
 64 65  1  0  0  0
 65 66  1  0  0  0
 66 67  2  0  0  0
 66 68  1  0  0  0
 70 69  1  0  0  0
 71 69  1  0  0  0
 71 70  1  0  0  0
 71 72  1  0  0  0
 71 74  1  0  0  0
 72 73  2  0  0  0
 72 75  1  0  0  0
 75 76  1  0  0  0
 76 77  1  0  0  0
 76 79  1  0  0  0
 77 78  2  0  0  0
 77 83  1  0  0  0
 79 80  1  0  0  0
 80 81  1  0  0  0
 80 82  1  0  0  0
  3 84  1  0  0  0
  3 85  1  0  0  0
  3 86  1  0  0  0
  4 87  1  0  0  0
  5 88  1  0  0  0
  8 89  1  0  0  0
  8 90  1  0  0  0
 10 91  1  0  0  0
 11 92  1  0  0  0
 12 93  1  0  0  0
 13 94  1  0  0  0
 14 95  1  0  0  0
 15 96  1  0  0  0
 16 97  1  0  0  0
 19 98  1  0  0  0
 19 99  1  0  0  0
 20100  1  0  0  0
 20101  1  0  0  0
 22102  1  0  0  0
 22103  1  0  0  0
 22104  1  0  0  0
 23105  1  0  0  0
 27106  1  0  0  0
 27107  1  0  0  0
 27108  1  0  0  0
 28109  1  0  0  0
 28110  1  0  0  0
 28111  1  0  0  0
 29112  1  0  0  0
 30113  1  0  0  0
 31114  1  0  0  0
 31115  1  0  0  0
 33116  1  0  0  0
 34117  1  0  0  0
 35118  1  0  0  0
 36119  1  0  0  0
 38120  1  0  0  0
 38121  1  0  0  0
 41122  1  0  0  0
 42123  1  0  0  0
 45124  1  0  0  0
 46125  1  0  0  0
 47126  1  0  0  0
 47127  1  0  0  0
 50128  1  0  0  0
 53129  1  0  0  0
 54130  1  0  0  0
 57131  1  0  0  0
 60132  1  0  0  0
 61133  1  0  0  0
 64134  1  0  0  0
 64135  1  0  0  0
 65136  1  0  0  0
 65137  1  0  0  0
 68138  1  0  0  0
 69139  1  0  0  0
 69140  1  0  0  0
 70141  1  0  0  0
 70142  1  0  0  0
 74143  1  0  0  0
 75144  1  0  0  0
 76145  1  0  0  0
 79146  1  0  0  0
 79147  1  0  0  0
 80148  1  0  0  0
 81149  1  0  0  0
 81150  1  0  0  0
 81151  1  0  0  0
 82152  1  0  0  0
 82153  1  0  0  0
 82154  1  0  0  0
 83155  1  0  0  0
 83156  1  0  0  0
M  END
$$$$
