3ffu_ligand
  -I-interpret- 

 47 49  0  0  0  0  0  0  0  0999 V2000
   28.0640   -8.8070  -18.3680 P   0  0  0  0  0
   27.8920   -7.4940  -19.1260 O   0  0  0  0  0
   27.9650   -8.5420  -16.8670 O   0  0  0  0  0
   29.4530   -9.3790  -18.6510 O   0  0  0  0  0
   26.8900   -9.8310  -18.8790 O   0  0  0  0  0
   25.3030   -9.6130  -18.6110 P   0  0  0  0  0
   24.7850   -8.4300  -19.3960 O   0  0  0  0  0
   24.5400  -10.8720  -18.9330 O   0  0  0  0  0
   25.1250   -9.2980  -17.0280 O   0  0  0  0  0
   25.2450  -10.5020  -15.9700 P   0  0  0  0  0
   24.8180  -11.7810  -16.6340 O   0  0  0  0  0
   26.6510  -10.5600  -15.4570 O   0  0  0  0  0
   24.2210  -10.2300  -14.7690 O   0  0  0  0  0
   24.2360   -9.0110  -14.0810 C   0  0  0  0  0
   24.3400   -9.2030  -12.5590 C   0  0  0  0  0
   23.3160   -9.9900  -11.9480 O   0  0  0  0  0
   25.6760   -9.8060  -12.1740 C   0  0  0  0  0
   26.4020   -8.8250  -11.4500 O   0  0  0  0  0
   25.3010  -10.9980  -11.3180 C   0  0  0  0  0
   26.1050  -11.0240  -10.1730 O   0  0  0  0  0
   23.8720  -10.7390  -10.8780 C   0  0  0  0  0
   23.1190  -11.9960  -10.6240 N   0  0  0  0  0
   22.6820  -12.4990   -9.4190 C   0  0  0  0  0
   22.0200  -13.6640   -9.6750 N   0  0  0  0  0
   22.0110  -13.9070  -11.0110 C   0  0  0  0  0
   21.4890  -14.9210  -11.8230 C   0  0  0  0  0
   20.8760  -15.8820  -11.3500 O   0  0  0  0  0
   21.6710  -14.8630  -13.1900 N   0  0  0  0  0
   22.3640  -13.8090  -13.7470 C   0  0  0  0  0
   22.5720  -13.7100  -15.0520 N   0  0  0  0  0
   22.8650  -12.8200  -12.9460 N   0  0  0  0  0
   22.7050  -12.8660  -11.6060 C   0  0  0  0  0
   28.0732   -9.3678  -16.3896 H   0  0  0  0  0
   29.5609  -10.2051  -18.1740 H   0  0  0  0  0
   25.2925   -7.6481  -19.1664 H   0  0  0  0  0
   23.9137  -11.6929  -16.9440 H   0  0  0  0  0
   23.3022   -8.4905  -14.2937 H   0  0  0  0  0
   25.1077   -8.4462  -14.4115 H   0  0  0  0  0
   24.2203   -8.1883  -12.1794 H   0  0  0  0  0
   26.3044  -10.1136  -13.0098 H   0  0  0  0  0
   27.2548   -9.1838  -11.1940 H   0  0  0  0  0
   25.4204  -11.9359  -11.8604 H   0  0  0  0  0
   25.8655  -11.7802   -9.6323 H   0  0  0  0  0
   23.8245  -10.2074   -9.9276 H   0  0  0  0  0
   22.8369  -12.0482   -8.4387 H   0  0  0  0  0
   22.2146  -14.4287  -15.6814 H   0  0  0  0  0
   23.3661  -12.0374  -13.3664 H   0  0  0  0  0
  1  2  2  0  0  0
  1  3  1  0  0  0
  1  4  1  0  0  0
  1  5  1  0  0  0
  5  6  1  0  0  0
  6  7  1  0  0  0
  6  8  2  0  0  0
  6  9  1  0  0  0
  9 10  1  0  0  0
 10 11  1  0  0  0
 10 12  2  0  0  0
 10 13  1  0  0  0
 13 14  1  0  0  0
 14 15  1  0  0  0
 15 16  1  0  0  0
 15 17  1  0  0  0
 16 21  1  0  0  0
 17 18  1  0  0  0
 17 19  1  0  0  0
 19 20  1  0  0  0
 19 21  1  0  0  0
 21 22  1  0  0  0
 22 23  4  0  0  0
 22 32  4  0  0  0
 23 24  4  0  0  0
 24 25  4  0  0  0
 25 26  1  0  0  0
 25 32  4  0  0  0
 26 27  2  0  0  0
 26 28  1  0  0  0
 28 29  4  0  0  0
 29 30  2  0  0  0
 29 31  1  0  0  0
 31 32  1  0  0  0
  3 33  1  0  0  0
  4 34  1  0  0  0
  7 35  1  0  0  0
 11 36  1  0  0  0
 14 37  1  0  0  0
 14 38  1  0  0  0
 15 39  1  0  0  0
 17 40  1  0  0  0
 18 41  1  0  0  0
 19 42  1  0  0  0
 20 43  1  0  0  0
 21 44  1  0  0  0
 23 45  1  0  0  0
 30 46  1  0  0  0
 31 47  1  0  0  0
M  END
$$$$
