3fuc_ligand
  -I-interpret- 

 35 36  0  0  0  0  0  0  0  0999 V2000
   32.3860  -14.9410   24.9800 O   0  0  0  0  0
   31.3390  -14.0990   24.1700 P   0  0  0  0  0
   30.0310  -13.8640   25.0680 O   0  0  0  0  0
   30.9710  -14.6990   22.8460 O   0  0  0  0  0
   31.9840  -12.4160   23.8580 C   0  0  0  0  0
   32.9330  -12.4970   22.8860 F   0  0  0  0  0
   30.9860  -11.6460   23.4100 F   0  0  0  0  0
   32.6100  -11.8350   25.1200 C   0  0  0  0  0
   32.7940  -10.3110   24.9620 C   0  0  0  0  0
   33.3950   -9.6850   26.2270 C   0  0  0  0  0
   32.6170  -10.1110   27.4920 C   0  0  0  0  0
   33.0520   -9.3200   28.7270 C   0  0  0  0  0
   34.1090   -9.5590   29.5300 C   0  0  0  0  0
   34.1320   -8.6250   30.5030 N   0  0  0  0  0
   33.0950   -7.7550   30.3580 C   0  0  0  0  0
   32.6570   -6.6250   31.0250 C   0  0  0  0  0
   33.1950   -6.1300   32.0220 O   0  0  0  0  0
   31.4850   -5.9810   30.5030 N   0  0  0  0  0
   30.8530   -6.5460   29.3350 C   0  0  0  0  0
   29.7440   -5.8420   29.0170 N   0  0  0  0  0
   31.2320   -7.5640   28.7140 N   0  0  0  0  0
   32.4070   -8.1990   29.2290 C   0  0  0  0  0
   32.5742  -14.5007   25.8120 H   0  0  0  0  0
   30.2869  -13.4801   25.9098 H   0  0  0  0  0
   33.5823  -12.2991   25.2852 H   0  0  0  0  0
   31.9555  -12.0318   25.9691 H   0  0  0  0  0
   31.8172   -9.8612   24.7840 H   0  0  0  0  0
   33.4737  -10.1291   24.1295 H   0  0  0  0  0
   33.3397   -8.6002   26.1359 H   0  0  0  0  0
   34.4262  -10.0244   26.3245 H   0  0  0  0  0
   32.8175  -11.1665   27.6757 H   0  0  0  0  0
   31.5577   -9.9196   27.3208 H   0  0  0  0  0
   34.8256  -10.3719   29.4123 H   0  0  0  0  0
   29.4706   -5.0382   29.5823 H   0  0  0  0  0
   30.7368   -7.9178   27.8955 H   0  0  0  0  0
  1  2  1  0  0  0
  2  3  1  0  0  0
  2  4  2  0  0  0
  2  5  1  0  0  0
  5  6  1  0  0  0
  5  7  1  0  0  0
  5  8  1  0  0  0
  8  9  1  0  0  0
  9 10  1  0  0  0
 10 11  1  0  0  0
 11 12  1  0  0  0
 12 13  4  0  0  0
 12 22  4  0  0  0
 13 14  4  0  0  0
 14 15  4  0  0  0
 15 16  1  0  0  0
 15 22  4  0  0  0
 16 17  2  0  0  0
 16 18  1  0  0  0
 18 19  4  0  0  0
 19 20  2  0  0  0
 19 21  1  0  0  0
 21 22  1  0  0  0
  1 23  1  0  0  0
  3 24  1  0  0  0
  8 25  1  0  0  0
  8 26  1  0  0  0
  9 27  1  0  0  0
  9 28  1  0  0  0
 10 29  1  0  0  0
 10 30  1  0  0  0
 11 31  1  0  0  0
 11 32  1  0  0  0
 13 33  1  0  0  0
 20 34  1  0  0  0
 21 35  1  0  0  0
M  END
$$$$
