3fy0_ligand
  -I-interpret- 

 41 51  0  0  0  0  0  0  0  0999 V2000
   12.5860   13.0960   42.0650 O   0  0  0  0  0
   12.6600   14.2400   42.0940 C   0  0  0  0  0
   12.1650   16.7620   40.1080 C   0  0  0  0  0
   13.3860   16.0790   39.9570 C   0  0  0  0  0
   14.3760   16.7960   40.6300 C   0  0  0  0  0
   13.7770   17.9280   41.1820 C   0  0  0  0  0
   12.4130   17.9110   40.8630 C   0  0  0  0  0
   14.2800   15.9960   43.6830 N   0  0  0  0  0
   15.6300   15.8590   43.6300 C   0  0  0  0  0
   16.3650   15.8230   44.8330 C   0  0  0  0  0
   15.7510   15.9270   46.1010 C   0  0  0  0  0
   11.6370   16.2580   43.8080 N   0  0  0  0  0
   10.3790   16.4060   44.0730 C   0  0  0  0  0
   10.1790   16.4780   45.4600 C   0  0  0  0  0
    8.9030   16.6340   46.0140 C   0  0  0  0  0
    7.7840   16.7200   45.1560 C   0  0  0  0  0
    7.9860   16.6490   43.7600 C   0  0  0  0  0
    9.2740   16.4930   43.2140 C   0  0  0  0  0
    6.5040   16.8590   45.6190 O   0  0  0  0  0
   11.5070   16.3620   46.0210 C   0  0  0  0  0
   12.3030   16.2460   44.9020 C   0  0  0  0  0
   13.6780   16.1040   44.9260 C   0  0  0  0  0
   14.3560   16.0730   46.1610 C   0  0  0  0  0
   12.1510   16.3420   47.2720 C   0  0  0  0  0
   13.5590   16.2030   47.3330 C   0  0  0  0  0
   11.6840   16.4370   48.5900 C   0  0  0  0  0
   10.5400   16.5620   48.9650 O   0  0  0  0  0
   12.7350   16.3640   49.4550 N   0  0  0  0  0
   13.8760   16.2200   48.6990 C   0  0  0  0  0
   14.9720   16.1240   49.1940 O   0  0  0  0  0
   12.8590   16.0870   42.0660 Ru  0  0  0  0  0
   11.8703   14.3042   42.8425 H   0  0  0  0  0
   11.8481   18.8343   40.7344 H   0  0  0  0  0
   16.1391   15.7779   42.6696 H   0  0  0  0  0
   17.4480   15.7107   44.7825 H   0  0  0  0  0
   16.3473   15.8946   47.0129 H   0  0  0  0  0
    8.7743   16.6885   47.0950 H   0  0  0  0  0
    7.1273   16.7164   43.0920 H   0  0  0  0  0
    9.4111   16.4403   42.1339 H   0  0  0  0  0
    5.8983   16.8977   44.8752 H   0  0  0  0  0
   12.6851   16.4079   50.4728 H   0  0  0  0  0
  2  1  2  0  0  0
  4  3  2  0  0  0
  7  3  1  0  0  0
  5  4  1  0  0  0
  6  5  2  0  0  0
  7  6  1  0  0  0
  8  9  4  0  0  0
  8 22  4  0  0  0
  9 10  4  0  0  0
 10 11  4  0  0  0
 23 11  4  0  0  0
 12 13  4  0  0  0
 21 12  4  0  0  0
 14 13  4  0  0  0
 13 18  4  0  0  0
 14 15  4  0  0  0
 20 14  4  0  0  0
 15 16  4  0  0  0
 16 17  4  0  0  0
 16 19  1  0  0  0
 18 17  4  0  0  0
 21 20  4  0  0  0
 20 24  4  0  0  0
 22 21  4  0  0  0
 22 23  4  0  0  0
 23 25  4  0  0  0
 25 24  4  0  0  0
 24 26  1  0  0  0
 25 29  1  0  0  0
 26 27  2  0  0  0
 28 26  1  0  0  0
 29 28  1  0  0  0
 29 30  2  0  0  0
 31  2  1  0  0  0
 31  3  1  0  0  0
 31  4  1  0  0  0
 31  5  1  0  0  0
 31  6  1  0  0  0
 31  7  1  0  0  0
 31  8  1  0  0  0
 31 12  1  0  0  0
  2 32  1  0  0  0
  7 33  1  0  0  0
  9 34  1  0  0  0
 10 35  1  0  0  0
 11 36  1  0  0  0
 15 37  1  0  0  0
 17 38  1  0  0  0
 18 39  1  0  0  0
 19 40  1  0  0  0
 28 41  1  0  0  0
M  END
$$$$
