3ggj_ligand
  -I-interpret- 

 33 34  0  0  0  0  0  0  0  0999 V2000
   18.7860   53.5100    6.7100 N   0  0  0  0  0
   20.6450   57.1360    8.6610 C   0  0  0  0  0
   19.9500   53.9050    7.3010 C   0  0  0  0  0
   21.0780   55.8700    8.4050 N   0  0  0  0  0
   20.0710   55.2070    7.7790 C   0  0  0  0  0
   17.7550   54.3900    6.5930 C   0  0  0  0  0
   21.7210   60.0450   12.3500 O   0  0  0  0  0
   20.6430   60.1770   13.4040 P   0  0  0  0  0
   20.2860   61.6220   13.7150 O   0  0  0  0  0
   20.8850   59.3070   14.6200 O   0  0  0  0  0
   19.1100   59.5380   12.6830 C   0  0  0  0  0
   19.3030   59.3850   11.1850 C   0  0  0  0  0
   18.5850   58.2240   10.7680 O   0  0  0  0  0
   17.7700   58.4770    9.6090 C   0  0  0  0  0
   18.5850   58.4850    8.3050 C   0  0  0  0  0
   19.3860   57.2700    8.1990 N   0  0  0  0  0
   19.0000   56.0900    7.6490 C   0  0  0  0  0
   17.8480   55.6580    7.0580 N   0  0  0  0  0
   16.6060   53.9970    6.0060 N   0  0  0  0  0
   20.9690   53.0820    7.4240 O   0  0  0  0  0
   21.2231   57.9145    9.1588 H   0  0  0  0  0
   19.6006   61.6436   14.3868 H   0  0  0  0  0
   20.1716   59.4336   15.2497 H   0  0  0  0  0
   18.2911   60.2293   12.8820 H   0  0  0  0  0
   18.8674   58.5719   13.1255 H   0  0  0  0  0
   20.3619   59.2797   10.9490 H   0  0  0  0  0
   18.9309   60.2671   10.6638 H   0  0  0  0  0
   17.3148   59.4604    9.7266 H   0  0  0  0  0
   17.0303   57.6796    9.5379 H   0  0  0  0  0
   19.2491   59.3493    8.3065 H   0  0  0  0  0
   17.9002   58.5340    7.4584 H   0  0  0  0  0
   17.0547   56.2925    6.9664 H   0  0  0  0  0
   16.5136   53.0446    5.6527 H   0  0  0  0  0
  3  1  1  0  0  0
  1  6  4  0  0  0
  2  4  4  0  0  0
 16  2  4  0  0  0
  5  3  1  0  0  0
  3 20  2  0  0  0
  4  5  4  0  0  0
  5 17  4  0  0  0
  6 18  1  0  0  0
  6 19  2  0  0  0
  8  7  2  0  0  0
  8  9  1  0  0  0
  8 10  1  0  0  0
 11  8  1  0  0  0
 12 11  1  0  0  0
 13 12  1  0  0  0
 14 13  1  0  0  0
 15 14  1  0  0  0
 15 16  1  0  0  0
 16 17  4  0  0  0
 17 18  1  0  0  0
  2 21  1  0  0  0
  9 22  1  0  0  0
 10 23  1  0  0  0
 11 24  1  0  0  0
 11 25  1  0  0  0
 12 26  1  0  0  0
 12 27  1  0  0  0
 14 28  1  0  0  0
 14 29  1  0  0  0
 15 30  1  0  0  0
 15 31  1  0  0  0
 18 32  1  0  0  0
 19 33  1  0  0  0
M  END
$$$$
