3hik_ligand
  -I-interpret- 

 87 88  0  0  0  0  0  0  0  0999 V2000
  -13.2100    7.2440   -4.4550 C   0  0  0  0  0
  -13.5360    8.4060   -4.8380 O   0  0  0  0  0
  -12.6110    7.0330   -3.0930 C   0  0  0  0  0
  -13.0530    6.2230   -5.3280 N   0  0  0  0  0
  -13.0720    4.8280   -4.9470 C   0  0  0  0  0
  -11.7430    4.4610   -4.3080 C   0  0  0  0  0
  -10.7050    4.9060   -4.7870 O   0  0  0  0  0
  -13.1790    4.1050   -6.3020 C   0  0  0  0  0
  -13.8460    5.0630   -7.2210 C   0  0  0  0  0
  -13.7620    6.4550   -6.6020 C   0  0  0  0  0
  -11.7590    3.5780   -3.3010 N   0  0  0  0  0
  -10.5570    3.1890   -2.5970 C   0  0  0  0  0
   -9.8790    1.9000   -3.0730 C   0  0  0  0  0
   -8.8280    1.5210   -2.5830 O   0  0  0  0  0
  -10.8820    3.0730   -1.0940 C   0  0  0  0  0
  -11.3190    4.4080   -0.4560 C   0  0  0  0  0
  -12.1570    4.1340    0.7940 C   0  0  0  0  0
  -10.1310    5.3040   -0.1460 C   0  0  0  0  0
  -10.4820    1.2450   -4.0600 N   0  0  0  0  0
   -9.8670    0.1120   -4.6890 C   0  0  0  0  0
  -10.5180   -0.0670   -6.0260 C   0  0  0  0  0
  -11.5680    0.5060   -6.2680 O   0  0  0  0  0
   -9.9280   -1.1870   -3.8250 C   0  0  0  0  0
  -11.3100   -1.6220   -3.4260 C   0  0  0  0  0
  -12.2460   -2.0610   -4.3370 N   0  0  0  0  0
  -11.8930   -1.7380   -2.2080 C   0  0  0  0  0
  -13.3530   -2.4150   -3.7040 C   0  0  0  0  0
  -13.1640   -2.2320   -2.4090 N   0  0  0  0  0
   -9.8590   -0.8480   -6.8790 N   0  0  0  0  0
  -10.4210   -1.1900   -8.1880 C   0  0  0  0  0
  -11.7150   -2.0380   -8.0720 C   0  0  0  0  0
  -12.0790   -2.5180   -6.9800 O   0  0  0  0  0
   -9.3450   -1.8560   -9.0240 C   0  0  0  0  0
   -8.9080   -3.0680   -8.4890 O   0  0  0  0  0
  -12.4130   -2.2310   -9.2040 N   0  0  0  0  0
  -13.7020   -2.9650   -9.2220 C   0  0  0  0  0
  -14.1210   -3.0660  -10.6920 C   0  0  0  0  0
  -15.5350   -3.6330  -10.8710 C   0  0  0  0  0
  -14.1280   -1.7300  -11.2100 O   0  0  0  0  0
  -13.0730   -1.2840  -12.3710 P   0  0  0  0  0
  -13.3130   -2.3190  -13.4580 O   0  0  0  0  0
  -11.7110   -1.2950  -11.7900 O   0  0  0  0  0
  -13.6520    0.0580  -12.6330 O   0  0  0  0  0
  -13.5840   -4.3270   -8.6100 C   0  0  0  0  0
  -12.7030   -5.1040   -9.0010 O   0  0  0  0  0
  -14.3420   -4.6590   -7.6550 O   0  0  0  0  0
  -11.6855    7.6031   -3.0122 H   0  0  0  0  0
  -13.3146    7.3703   -2.3318 H   0  0  0  0  0
  -12.4000    5.9731   -2.9505 H   0  0  0  0  0
  -13.8676    4.5815   -4.2439 H   0  0  0  0  0
  -13.7477    3.1793   -6.2135 H   0  0  0  0  0
  -12.1967    3.8159   -6.6756 H   0  0  0  0  0
  -14.8885    4.7795   -7.3654 H   0  0  0  0  0
  -13.3528    5.0549   -8.1930 H   0  0  0  0  0
  -13.2447    7.1675   -7.2444 H   0  0  0  0  0
  -14.7428    6.9082   -6.4579 H   0  0  0  0  0
  -12.6491    3.1659   -3.0211 H   0  0  0  0  0
   -9.8311    3.9732   -2.8116 H   0  0  0  0  0
   -9.9741    2.7480   -0.5859 H   0  0  0  0  0
  -11.7109    2.3728   -0.9905 H   0  0  0  0  0
  -11.9326    4.9479   -1.1771 H   0  0  0  0  0
  -13.0409    3.5588    0.5184 H   0  0  0  0  0
  -11.5627    3.5681    1.5114 H   0  0  0  0  0
  -12.4624    5.0806    1.2398 H   0  0  0  0  0
   -9.4650    4.7942    0.5501 H   0  0  0  0  0
   -9.5941    5.5255   -1.0684 H   0  0  0  0  0
  -10.4850    6.2326    0.3018 H   0  0  0  0  0
  -11.4009    1.5544   -4.3766 H   0  0  0  0  0
   -8.8003    0.3031   -4.8063 H   0  0  0  0  0
   -9.3865   -0.9765   -2.9028 H   0  0  0  0  0
   -9.5097   -1.9888   -4.4334 H   0  0  0  0  0
  -11.4410   -1.4874   -1.2483 H   0  0  0  0  0
  -14.2632   -2.7923   -4.1702 H   0  0  0  0  0
   -8.9446   -1.2156   -6.6161 H   0  0  0  0  0
  -10.7353   -0.2772   -8.6941 H   0  0  0  0  0
   -8.4891   -1.1821   -9.0600 H   0  0  0  0  0
   -9.7691   -2.0616  -10.0068 H   0  0  0  0  0
   -8.2307   -3.4418   -9.0575 H   0  0  0  0  0
  -12.0443   -1.8605  -10.0799 H   0  0  0  0  0
  -14.4459   -2.4348   -8.6274 H   0  0  0  0  0
  -13.4274   -3.7336  -11.2032 H   0  0  0  0  0
  -15.5806   -4.6341  -10.4422 H   0  0  0  0  0
  -16.2513   -2.9863  -10.3642 H   0  0  0  0  0
  -15.7744   -3.6802  -11.9333 H   0  0  0  0  0
  -14.2151   -2.2427  -13.7773 H   0  0  0  0  0
  -14.5307   -0.0412  -13.0066 H   0  0  0  0  0
  -14.9635   -3.9487   -7.4794 H   0  0  0  0  0
  1  2  2  0  0  0
  1  3  1  0  0  0
  1  4  1  0  0  0
  4  5  1  0  0  0
  4 10  1  0  0  0
  5  6  1  0  0  0
  5  8  1  0  0  0
  6  7  2  0  0  0
  6 11  1  0  0  0
  8  9  1  0  0  0
  9 10  1  0  0  0
 11 12  1  0  0  0
 12 13  1  0  0  0
 12 15  1  0  0  0
 13 14  2  0  0  0
 13 19  1  0  0  0
 15 16  1  0  0  0
 16 17  1  0  0  0
 16 18  1  0  0  0
 19 20  1  0  0  0
 20 21  1  0  0  0
 20 23  1  0  0  0
 21 22  2  0  0  0
 21 29  1  0  0  0
 23 24  1  0  0  0
 24 25  4  0  0  0
 24 26  4  0  0  0
 25 27  4  0  0  0
 26 28  4  0  0  0
 27 28  4  0  0  0
 29 30  1  0  0  0
 30 31  1  0  0  0
 30 33  1  0  0  0
 31 32  2  0  0  0
 31 35  1  0  0  0
 33 34  1  0  0  0
 35 36  1  0  0  0
 36 37  1  0  0  0
 36 44  1  0  0  0
 37 38  1  0  0  0
 37 39  1  0  0  0
 39 40  1  0  0  0
 40 41  1  0  0  0
 40 42  2  0  0  0
 40 43  1  0  0  0
 44 45  2  0  0  0
 44 46  1  0  0  0
  3 47  1  0  0  0
  3 48  1  0  0  0
  3 49  1  0  0  0
  5 50  1  0  0  0
  8 51  1  0  0  0
  8 52  1  0  0  0
  9 53  1  0  0  0
  9 54  1  0  0  0
 10 55  1  0  0  0
 10 56  1  0  0  0
 11 57  1  0  0  0
 12 58  1  0  0  0
 15 59  1  0  0  0
 15 60  1  0  0  0
 16 61  1  0  0  0
 17 62  1  0  0  0
 17 63  1  0  0  0
 17 64  1  0  0  0
 18 65  1  0  0  0
 18 66  1  0  0  0
 18 67  1  0  0  0
 19 68  1  0  0  0
 20 69  1  0  0  0
 23 70  1  0  0  0
 23 71  1  0  0  0
 26 72  1  0  0  0
 27 73  1  0  0  0
 29 74  1  0  0  0
 30 75  1  0  0  0
 33 76  1  0  0  0
 33 77  1  0  0  0
 34 78  1  0  0  0
 35 79  1  0  0  0
 36 80  1  0  0  0
 37 81  1  0  0  0
 38 82  1  0  0  0
 38 83  1  0  0  0
 38 84  1  0  0  0
 41 85  1  0  0  0
 43 86  1  0  0  0
 46 87  1  0  0  0
M  END
$$$$
