3hio_ligand
  -I-interpret- 

177189  0  0  0  0  0  0  0  0999 V2000
  -30.9430    2.5110    6.4610 O   0  0  0  0  0
  -30.4120    3.0700    7.4340 C   0  0  0  0  0
  -28.9560    3.0680    7.6150 C   0  0  0  0  0
  -27.9160    2.5820    6.9330 N   0  0  0  0  0
  -26.8010    2.9090    7.6110 C   0  0  0  0  0
  -31.1470    3.6810    8.3410 N   0  0  0  0  0
  -30.6280    4.2920    9.4100 C   0  0  0  0  0
  -31.5120    4.8680   10.2560 N   0  0  0  0  0
  -29.2950    4.3400    9.6630 N   0  0  0  0  0
  -28.4270    3.7460    8.8060 C   0  0  0  0  0
  -27.1050    3.5960    8.7290 N   0  0  0  0  0
  -26.1150    4.1080    9.7000 C   0  0  0  0  0
  -25.8780    3.1450   10.8480 C   0  0  0  0  0
  -26.8500    3.3200   11.8700 O   0  0  0  0  0
  -27.9000    2.3590   11.7680 C   0  0  0  0  0
  -24.5410    3.6480   11.3270 C   0  0  0  0  0
  -24.8260    4.9280   11.8480 O   0  0  0  0  0
  -24.7650    5.3770   13.3770 P   0  0  0  0  0
  -23.6130    4.6820   14.0710 O   0  0  0  0  0
  -26.1640    5.2570   13.9460 O   0  0  0  0  0
  -24.4970    6.9560   13.2020 O   0  0  0  0  0
  -23.2750    7.5820   12.8330 C   0  0  0  0  0
  -23.0470    7.7680   11.3270 C   0  0  0  0  0
  -23.6340    8.9960   10.6300 C   0  0  0  0  0
  -22.5060    9.4430    9.7850 N   0  3  0  0  0
  -22.4530   10.6020    8.8860 C   0  0  0  0  0
  -23.3040   10.2240    7.7060 C   0  0  0  0  0
  -22.9520    9.5090    6.5620 C   0  0  0  0  0
  -24.0750    9.3550    5.7880 N   0  0  0  0  0
  -25.1540    9.9130    6.3720 C   0  0  0  0  0
  -26.4940   10.0670    6.0380 C   0  0  0  0  0
  -26.9860    9.5610    4.8840 N   0  0  0  0  0
  -27.3240   10.7140    6.8860 N   0  0  0  0  0
  -26.8720   11.2250    8.0310 C   0  0  0  0  0
  -25.5880   11.1020    8.3920 N   0  0  0  0  0
  -24.7430   10.4800    7.5440 C   0  0  0  0  0
  -21.3160    8.6180    9.8670 C   0  0  0  0  0
  -21.5770    8.0590   11.2480 C   0  0  0  0  0
  -20.9650    6.8220   11.4790 O   0  0  0  0  0
  -19.8070    6.7310   12.5790 P   0  0  0  0  0
  -18.5300    6.6590   11.7710 O   0  0  0  0  0
  -19.9910    7.7660   13.6490 O   0  0  0  0  0
  -20.1340    5.3130   13.2090 O   0  0  0  0  0
  -21.2820    4.6050   12.7970 C   0  0  0  0  0
  -20.8540    3.1610   12.9150 C   0  0  0  0  0
  -20.5630    2.6470   11.6170 O   0  0  0  0  0
  -19.4410    1.7580   11.6740 C   0  0  0  0  0
  -18.3770    2.2840   10.7760 N   0  0  0  0  0
  -18.4650    2.4250    9.4470 C   0  0  0  0  0
  -19.4120    2.1750    8.5010 N   0  0  0  0  0
  -19.1750    2.4350    7.1850 C   0  0  0  0  0
  -20.1380    2.1730    6.2700 N   0  0  0  0  0
  -18.0180    2.9450    6.7340 N   0  0  0  0  0
  -17.0010    3.2360    7.5510 C   0  0  0  0  0
  -15.9370    3.7090    7.0920 O   0  0  0  0  0
  -17.1760    2.9830    9.0050 C   0  0  0  0  0
  -16.4240    3.1310   10.1120 N   0  0  0  0  0
  -17.1640    2.7100   11.1700 C   0  0  0  0  0
  -18.9870    1.7350   13.1280 C   0  0  0  0  0
  -19.6240    0.6330   13.7820 O   0  0  0  0  0
  -18.8970   -0.5930   13.6700 C   0  0  0  0  0
  -19.5450    3.0350   13.6840 C   0  0  0  0  0
  -19.7640    3.0250   15.0970 O   0  0  0  0  0
  -24.8380    4.2350    9.0810 O   0  0  0  0  0
  -23.8070    3.9590   10.0360 C   0  0  0  0  0
  -23.0300    2.7440    9.5810 C   0  0  0  0  0
  -23.9820    1.6870    9.5710 O   0  0  0  0  0
  -23.5030    0.1620    9.7270 P   0  0  0  0  0
  -24.7410   -0.7020    9.8110 O   0  0  0  0  0
  -22.4700   -0.0830    8.6510 O   0  0  0  0  0
  -22.7880    0.1430   11.1770 O   0  0  0  0  0
  -23.4820   -0.2790   12.3570 C   0  0  0  0  0
  -22.7530    0.2320   13.6050 C   0  0  0  0  0
  -21.7640   -0.7900   14.1800 C   0  0  0  0  0
  -21.3190   -0.4010   15.5940 C   0  0  0  0  0
  -19.9270   -0.9380   15.9330 C   0  0  0  0  0
  -19.8090   -1.3270   17.4100 C   0  0  0  0  0
  -18.5470   -0.9220   17.9660 O   0  0  0  0  0
  -18.1200   -1.4380   19.2520 N   0  3  0  0  0
  -17.8190   -0.6070   20.3970 O   0  0  0  0  0
  -16.3790    0.1040   20.5670 P   0  0  0  0  0
  -16.5760    1.5580   20.9280 O   0  0  0  0  0
  -15.5030   -0.7610   21.4410 O   0  0  0  0  0
  -15.7760    0.0330   19.0720 O   0  0  0  0  0
  -16.1110    0.9680   18.0490 C   0  0  0  0  0
  -16.3480    0.1880   16.7620 C   0  0  0  0  0
  -17.2210    1.0050   15.8120 C   0  0  0  0  0
  -18.0920    1.8200   16.5960 O   0  0  0  0  0
  -18.5850    3.3120   16.1770 P   0  0  0  0  0
  -17.4490    4.0480   15.5200 O   0  0  0  0  0
  -19.2550    3.8710   17.4090 O   0  0  0  0  0
  -14.8360    1.6940   17.7350 C   0  0  0  0  0
  -14.1670    2.2090   18.8810 O   0  0  0  0  0
  -13.8010    3.5770   18.6990 C   0  0  0  0  0
  -14.1200    0.4810   17.2060 C   0  0  0  0  0
  -15.0340   -0.0010   16.2120 O   0  0  0  0  0
  -12.7480    0.8230   16.7680 N   0  0  0  0  0
  -12.2130    2.0500   16.7800 C   0  0  0  0  0
  -10.9120    1.9340   16.3210 C   0  0  0  0  0
  -10.6870    0.6280   16.0560 N   0  0  0  0  0
  -11.8230   -0.0490   16.3400 C   0  0  0  0  0
  -12.6930    3.2740   17.1240 N   0  0  0  0  0
  -11.9070    4.3600   17.0160 C   0  0  0  0  0
  -10.6440    4.2710   16.5710 N   0  0  0  0  0
  -10.1260    3.0730   16.2190 C   0  0  0  0  0
   -8.8530    2.9730   15.7720 N   0  0  0  0  0
  -25.7888    2.6527    7.2980 H   0  0  0  0  0
  -32.5117    4.8201   10.0593 H   0  0  0  0  0
  -28.9478    4.8202   10.4932 H   0  0  0  0  0
  -26.5214    5.0550   10.0552 H   0  0  0  0  0
  -25.9237    2.0902   10.5772 H   0  0  0  0  0
  -28.3937    2.4634   10.8019 H   0  0  0  0  0
  -27.4828    1.3560   11.8578 H   0  0  0  0  0
  -28.6227    2.5262   12.5667 H   0  0  0  0  0
  -24.0210    2.9798   12.0135 H   0  0  0  0  0
  -26.7758    5.7507   13.3950 H   0  0  0  0  0
  -22.4764    6.9299   13.1867 H   0  0  0  0  0
  -23.2987    8.5819   13.2662 H   0  0  0  0  0
  -23.4937    6.8932   10.8545 H   0  0  0  0  0
  -23.9804    9.7608   11.3251 H   0  0  0  0  0
  -24.5375    8.7770   10.0610 H   0  0  0  0  0
  -23.2697   10.1072    9.6585 H   0  0  0  0  0
  -21.4305   10.8329    8.5871 H   0  0  0  0  0
  -22.8190   11.5059    9.3729 H   0  0  0  0  0
  -21.9559    9.1363    6.3233 H   0  0  0  0  0
  -26.3709    9.0579    4.2445 H   0  0  0  0  0
  -27.9721    9.6826    4.6533 H   0  0  0  0  0
  -27.5622   11.7545    8.6878 H   0  0  0  0  0
  -20.3652    9.1330    9.7301 H   0  0  0  0  0
  -21.1844    7.8858    9.0704 H   0  0  0  0  0
  -21.1966    8.7880   11.9635 H   0  0  0  0  0
  -18.5931    5.9398   11.1383 H   0  0  0  0  0
  -21.6010    4.8691   11.7887 H   0  0  0  0  0
  -22.1591    4.8355   13.4017 H   0  0  0  0  0
  -21.6628    2.6294   13.4163 H   0  0  0  0  0
  -19.6832    0.7472   11.3458 H   0  0  0  0  0
  -20.3125    1.7871    8.7821 H   0  0  0  0  0
  -19.9686    2.3637    5.2824 H   0  0  0  0  0
  -16.8195    2.7166   12.2041 H   0  0  0  0  0
  -17.9089    1.6376   13.2558 H   0  0  0  0  0
  -18.7889   -0.8550   12.6175 H   0  0  0  0  0
  -17.9111   -0.4716   14.1186 H   0  0  0  0  0
  -19.4387   -1.3839   14.1888 H   0  0  0  0  0
  -18.8546    3.8690   13.5582 H   0  0  0  0  0
  -23.1073    4.7863   10.1545 H   0  0  0  0  0
  -22.1906    2.5280   10.2420 H   0  0  0  0  0
  -22.5799    2.8941    8.5997 H   0  0  0  0  0
  -25.2843   -0.4101   10.5467 H   0  0  0  0  0
  -23.5164   -1.3682   12.3826 H   0  0  0  0  0
  -24.4940    0.1257   12.3419 H   0  0  0  0  0
  -23.5035    0.4348   14.3690 H   0  0  0  0  0
  -22.1869    1.1187   13.3198 H   0  0  0  0  0
  -20.8849   -0.8218   13.5364 H   0  0  0  0  0
  -22.2569   -1.7611   14.2265 H   0  0  0  0  0
  -22.0285   -0.8298   16.3018 H   0  0  0  0  0
  -21.2847    0.6870   15.6504 H   0  0  0  0  0
  -19.1986   -0.1538   15.7268 H   0  0  0  0  0
  -19.7477   -1.8280   15.3298 H   0  0  0  0  0
  -19.8866   -2.4115   17.4872 H   0  0  0  0  0
  -20.6045   -0.8264   17.9620 H   0  0  0  0  0
  -17.2166   -1.8598   19.0365 H   0  0  0  0  0
  -18.9352   -1.9652   19.5648 H   0  0  0  0  0
  -17.1536    1.9715   20.2822 H   0  0  0  0  0
  -16.9537    1.5883   18.3543 H   0  0  0  0  0
  -16.8631   -0.7583   16.9274 H   0  0  0  0  0
  -17.8034    0.3406   15.1736 H   0  0  0  0  0
  -16.5966    1.6302   15.1737 H   0  0  0  0  0
  -19.9530    3.2751   17.6905 H   0  0  0  0  0
  -14.9275    2.5779   17.1038 H   0  0  0  0  0
  -13.1344    3.6624   17.8408 H   0  0  0  0  0
  -14.6977    4.1716   18.5246 H   0  0  0  0  0
  -13.2924    3.9378   19.5930 H   0  0  0  0  0
  -13.9095   -0.3102   17.9256 H   0  0  0  0  0
  -11.9635   -1.1251   16.2380 H   0  0  0  0  0
  -12.3051    5.3352   17.2964 H   0  0  0  0  0
   -8.4740    2.0626   15.5113 H   0  0  0  0  0
   -8.2722    3.8080   15.6957 H   0  0  0  0  0
  1  2  2  0  0  0
  2  3  1  0  0  0
  2  6  1  0  0  0
  3  4  4  0  0  0
  3 10  4  0  0  0
  4  5  4  0  0  0
  5 11  4  0  0  0
  6  7  4  0  0  0
  7  8  2  0  0  0
  7  9  1  0  0  0
  9 10  1  0  0  0
 10 11  4  0  0  0
 11 12  1  0  0  0
 12 13  1  0  0  0
 12 64  1  0  0  0
 13 14  1  0  0  0
 13 16  1  0  0  0
 14 15  1  0  0  0
 16 17  1  0  0  0
 16 65  1  0  0  0
 17 18  1  0  0  0
 18 19  2  0  0  0
 18 20  1  0  0  0
 18 21  1  0  0  0
 21 22  1  0  0  0
 22 23  1  0  0  0
 23 24  1  0  0  0
 23 38  1  0  0  0
 24 25  1  0  0  0
 25 26  1  0  0  0
 25 37  1  0  0  0
 26 27  1  0  0  0
 27 28  4  0  0  0
 27 36  4  0  0  0
 28 29  4  0  0  0
 29 30  4  0  0  0
 30 31  4  0  0  0
 30 36  4  0  0  0
 31 32  1  0  0  0
 31 33  4  0  0  0
 33 34  4  0  0  0
 34 35  4  0  0  0
 35 36  4  0  0  0
 37 38  1  0  0  0
 38 39  1  0  0  0
 39 40  1  0  0  0
 40 41  1  0  0  0
 40 42  2  0  0  0
 40 43  1  0  0  0
 43 44  1  0  0  0
 44 45  1  0  0  0
 45 46  1  0  0  0
 45 62  1  0  0  0
 46 47  1  0  0  0
 47 48  1  0  0  0
 47 59  1  0  0  0
 48 49  4  0  0  0
 48 58  4  0  0  0
 49 50  1  0  0  0
 49 56  4  0  0  0
 50 51  1  0  0  0
 51 52  2  0  0  0
 51 53  4  0  0  0
 53 54  1  0  0  0
 54 55  2  0  0  0
 54 56  1  0  0  0
 56 57  4  0  0  0
 57 58  4  0  0  0
 59 60  1  0  0  0
 59 62  1  0  0  0
 60 61  1  0  0  0
 62 63  1  0  0  0
 63 89  1  0  0  0
 64 65  1  0  0  0
 65 66  1  0  0  0
 66 67  1  0  0  0
 67 68  1  0  0  0
 68 69  1  0  0  0
 68 70  2  0  0  0
 68 71  1  0  0  0
 71 72  1  0  0  0
 72 73  1  0  0  0
 73 74  1  0  0  0
 74 75  1  0  0  0
 75 76  1  0  0  0
 76 77  1  0  0  0
 77 78  1  0  0  0
 78 79  1  0  0  0
 79 80  1  0  0  0
 80 81  1  0  0  0
 81 82  1  0  0  0
 81 83  2  0  0  0
 81 84  1  0  0  0
 84 85  1  0  0  0
 85 86  1  0  0  0
 85 92  1  0  0  0
 86 87  1  0  0  0
 86 96  1  0  0  0
 87 88  1  0  0  0
 88 89  1  0  0  0
 89 90  2  0  0  0
 89 91  1  0  0  0
 92 93  1  0  0  0
 92 95  1  0  0  0
 93 94  1  0  0  0
 95 96  1  0  0  0
 95 97  1  0  0  0
 97 98  4  0  0  0
 97101  4  0  0  0
 98 99  4  0  0  0
 98102  4  0  0  0
 99100  4  0  0  0
 99105  4  0  0  0
100101  4  0  0  0
102103  4  0  0  0
103104  4  0  0  0
104105  4  0  0  0
105106  1  0  0  0
  5107  1  0  0  0
  8108  1  0  0  0
  9109  1  0  0  0
 12110  1  0  0  0
 13111  1  0  0  0
 15112  1  0  0  0
 15113  1  0  0  0
 15114  1  0  0  0
 16115  1  0  0  0
 20116  1  0  0  0
 22117  1  0  0  0
 22118  1  0  0  0
 23119  1  0  0  0
 24120  1  0  0  0
 24121  1  0  0  0
 25122  1  0  0  0
 26123  1  0  0  0
 26124  1  0  0  0
 28125  1  0  0  0
 32126  1  0  0  0
 32127  1  0  0  0
 34128  1  0  0  0
 37129  1  0  0  0
 37130  1  0  0  0
 38131  1  0  0  0
 41132  1  0  0  0
 44133  1  0  0  0
 44134  1  0  0  0
 45135  1  0  0  0
 47136  1  0  0  0
 50137  1  0  0  0
 52138  1  0  0  0
 58139  1  0  0  0
 59140  1  0  0  0
 61141  1  0  0  0
 61142  1  0  0  0
 61143  1  0  0  0
 62144  1  0  0  0
 65145  1  0  0  0
 66146  1  0  0  0
 66147  1  0  0  0
 69148  1  0  0  0
 72149  1  0  0  0
 72150  1  0  0  0
 73151  1  0  0  0
 73152  1  0  0  0
 74153  1  0  0  0
 74154  1  0  0  0
 75155  1  0  0  0
 75156  1  0  0  0
 76157  1  0  0  0
 76158  1  0  0  0
 77159  1  0  0  0
 77160  1  0  0  0
 79161  1  0  0  0
 79162  1  0  0  0
 82163  1  0  0  0
 85164  1  0  0  0
 86165  1  0  0  0
 87166  1  0  0  0
 87167  1  0  0  0
 91168  1  0  0  0
 92169  1  0  0  0
 94170  1  0  0  0
 94171  1  0  0  0
 94172  1  0  0  0
 95173  1  0  0  0
101174  1  0  0  0
103175  1  0  0  0
106176  1  0  0  0
106177  1  0  0  0
M  END
$$$$
