3kyf_ligand
  -I-interpret- 

 35 37  0  0  0  0  0  0  0  0999 V2000
   -5.1860   10.1580   16.4700 P   0  0  0  0  0
   -4.6000    9.1780   17.4200 O   0  0  0  0  0
   -4.8800    9.8030   15.0590 O   0  0  0  0  0
   -4.5800   11.6230   16.6850 O   0  0  0  0  0
   -4.4910   12.1740   18.0030 C   0  0  0  0  0
   -4.0510   13.6380   17.9490 C   0  0  0  0  0
   -2.7680   13.7940   17.3190 O   0  0  0  0  0
   -5.0110   14.4550   17.0850 C   0  0  0  0  0
   -6.1470   14.7950   17.8860 O   0  0  0  0  0
   -4.1310   15.6880   16.8950 C   0  0  0  0  0
   -4.0450   16.4240   18.1180 O   0  0  0  0  0
   -2.7770   15.0390   16.5980 C   0  0  0  0  0
   -2.6600   14.7460   15.1520 N   0  0  0  0  0
   -2.8530   13.5710   14.5580 C   0  0  0  0  0
   -2.6320   13.6930   13.2510 N   0  0  0  0  0
   -2.2970   14.9570   13.0050 C   0  0  0  0  0
   -1.9540   15.6450   11.8470 C   0  0  0  0  0
   -1.9220   15.0740   10.7570 O   0  0  0  0  0
   -1.6340   17.0040   11.9440 N   0  0  0  0  0
   -1.6660   17.6290   13.1980 C   0  0  0  0  0
   -1.3330   18.9120   13.3100 N   0  0  0  0  0
   -2.0040   16.9330   14.2930 N   0  0  0  0  0
   -2.3140   15.6300   14.2200 C   0  0  0  0  0
   -5.2724   10.4551   14.4738 H   0  0  0  0  0
   -3.7558   11.6061   18.5732 H   0  0  0  0  0
   -5.4719   12.1183   18.4750 H   0  0  0  0  0
   -4.0259   13.9742   18.9856 H   0  0  0  0  0
   -5.3853   13.9897   16.1731 H   0  0  0  0  0
   -6.6983   14.0179   18.0037 H   0  0  0  0  0
   -4.4877   16.3823   16.1342 H   0  0  0  0  0
   -3.4899   17.1962   17.9871 H   0  0  0  0  0
   -1.9563   15.6954   16.8874 H   0  0  0  0  0
   -3.1466   12.6510   15.0634 H   0  0  0  0  0
   -1.0545   19.4406   12.4833 H   0  0  0  0  0
   -2.0258   17.4029   15.1980 H   0  0  0  0  0
  1  2  2  0  0  0
  1  3  1  0  0  0
  1  4  1  0  0  0
  4  5  1  0  0  0
  5  6  1  0  0  0
  6  7  1  0  0  0
  6  8  1  0  0  0
  7 12  1  0  0  0
  8  9  1  0  0  0
  8 10  1  0  0  0
 10 11  1  0  0  0
 10 12  1  0  0  0
 12 13  1  0  0  0
 13 14  4  0  0  0
 13 23  4  0  0  0
 14 15  4  0  0  0
 15 16  4  0  0  0
 16 17  1  0  0  0
 16 23  4  0  0  0
 17 18  2  0  0  0
 17 19  1  0  0  0
 19 20  4  0  0  0
 20 21  2  0  0  0
 20 22  1  0  0  0
 22 23  1  0  0  0
  3 24  1  0  0  0
  5 25  1  0  0  0
  5 26  1  0  0  0
  6 27  1  0  0  0
  8 28  1  0  0  0
  9 29  1  0  0  0
 10 30  1  0  0  0
 11 31  1  0  0  0
 12 32  1  0  0  0
 14 33  1  0  0  0
 21 34  1  0  0  0
 22 35  1  0  0  0
M  END
$$$$
