3lzz_ligand
  -I-interpret- 

 42 44  0  0  0  0  0  0  0  0999 V2000
  -24.9580   -7.4180   15.6940 P   0  0  0  0  0
  -26.1250   -8.3610   15.7750 O   0  0  0  0  0
  -25.4530   -6.0140   15.4630 O   0  0  0  0  0
  -24.2230   -7.4770   16.9940 O   0  0  0  0  0
  -24.0090   -7.9040   14.4980 O   0  0  0  0  0
  -24.6460   -8.7390   13.2770 P   0  0  0  0  0
  -26.1230   -8.4870   13.2390 O   0  0  0  0  0
  -24.2690  -10.2020   13.2840 O   0  0  0  0  0
  -24.0910   -8.1220   11.9440 O   0  0  0  0  0
  -25.1200   -7.8100   11.0450 C   0  0  0  0  0
  -24.7040   -8.2670    9.6800 C   0  0  0  0  0
  -25.8750   -8.4550    8.9100 O   0  0  0  0  0
  -23.8540   -7.2480    8.9450 C   0  0  0  0  0
  -22.4920   -7.6880    8.8420 O   0  0  0  0  0
  -24.5000   -7.2160    7.5790 C   0  0  0  0  0
  -23.4900   -7.3970    6.6310 O   0  0  0  0  0
  -25.3390   -8.4550    7.6210 C   0  0  0  0  0
  -26.2450   -8.7170    6.5030 N   0  0  0  0  0
  -27.4640   -9.2350    6.4740 C   0  0  0  0  0
  -27.8770   -9.3510    5.2030 N   0  0  0  0  0
  -26.8930   -8.9430    4.3990 C   0  0  0  0  0
  -26.6010   -8.7720    2.9540 C   0  0  0  0  0
  -27.3740   -9.0550    2.0730 O   0  0  0  0  0
  -25.4460   -8.2800    2.6090 N   0  0  0  0  0
  -24.5470   -7.9480    3.5320 C   0  0  0  0  0
  -23.3610   -7.4530    3.1980 N   0  0  0  0  0
  -24.7270   -8.0730    4.8250 N   0  0  0  0  0
  -25.8460   -8.5370    5.2990 C   0  0  0  0  0
  -26.6115   -8.3380   14.9477 H   0  0  0  0  0
  -25.9252   -5.9757   14.6280 H   0  0  0  0  0
  -23.3129  -10.2848   13.3088 H   0  0  0  0  0
  -25.3011   -6.7351   11.0412 H   0  0  0  0  0
  -26.0418   -8.3098   11.3426 H   0  0  0  0  0
  -24.1163   -9.1762    9.8072 H   0  0  0  0  0
  -23.8149   -6.2788    9.4422 H   0  0  0  0  0
  -21.9777   -7.0263    8.3738 H   0  0  0  0  0
  -25.0495   -6.3047    7.3431 H   0  0  0  0  0
  -23.8724   -7.3811    5.7506 H   0  0  0  0  0
  -24.7327   -9.3429    7.4417 H   0  0  0  0  0
  -28.0439   -9.5234    7.3507 H   0  0  0  0  0
  -23.1224   -7.3198    2.2153 H   0  0  0  0  0
  -23.9811   -7.8033    5.4663 H   0  0  0  0  0
  1  2  1  0  0  0
  1  3  1  0  0  0
  1  4  2  0  0  0
  1  5  1  0  0  0
  5  6  1  0  0  0
  6  7  2  0  0  0
  6  8  1  0  0  0
  6  9  1  0  0  0
  9 10  1  0  0  0
 10 11  1  0  0  0
 11 12  1  0  0  0
 11 13  1  0  0  0
 12 17  1  0  0  0
 13 14  1  0  0  0
 13 15  1  0  0  0
 15 16  1  0  0  0
 15 17  1  0  0  0
 17 18  1  0  0  0
 18 19  4  0  0  0
 18 28  4  0  0  0
 19 20  4  0  0  0
 20 21  4  0  0  0
 21 22  1  0  0  0
 21 28  4  0  0  0
 22 23  2  0  0  0
 22 24  1  0  0  0
 24 25  4  0  0  0
 25 26  2  0  0  0
 25 27  1  0  0  0
 27 28  1  0  0  0
  2 29  1  0  0  0
  3 30  1  0  0  0
  8 31  1  0  0  0
 10 32  1  0  0  0
 10 33  1  0  0  0
 11 34  1  0  0  0
 13 35  1  0  0  0
 14 36  1  0  0  0
 15 37  1  0  0  0
 16 38  1  0  0  0
 17 39  1  0  0  0
 19 40  1  0  0  0
 26 41  1  0  0  0
 27 42  1  0  0  0
M  END
$$$$
