3m89_ligand
  -I-interpret- 

 47 49  0  0  0  0  0  0  0  0999 V2000
  -18.2990  -22.9910  -20.8370 P   0  0  0  0  0
  -19.0790  -23.0480  -19.3760 O   0  0  0  0  0
  -18.9740  -24.6010  -21.5030 S   0  0  0  0  0
  -18.7890  -21.6980  -21.3940 O   0  0  0  0  0
  -16.8340  -23.2910  -20.7280 O   0  0  0  0  0
  -19.0160  -21.9530  -18.1140 P   0  0  0  0  0
  -18.1790  -20.9390  -18.7060 O   0  0  0  0  0
  -20.3150  -21.4010  -17.6090 O   0  0  0  0  0
  -18.9770  -23.8550  -16.0120 P   0  0  0  0  0
  -20.0570  -23.2180  -15.2070 O   0  0  0  0  0
  -19.1970  -25.0660  -16.8820 O   0  0  0  0  0
  -18.3170  -22.7270  -16.8870 O   0  0  0  0  0
  -17.7740  -24.2360  -14.9460 O   0  0  0  0  0
  -16.4520  -23.5800  -14.8870 C   0  0  0  0  0
  -15.6960  -24.2420  -13.7520 C   0  0  0  0  0
  -16.6280  -24.6030  -12.6480 O   0  0  0  0  0
  -14.9890  -25.5960  -14.1380 C   0  0  0  0  0
  -13.6270  -25.5400  -13.5980 O   0  0  0  0  0
  -15.8500  -26.7430  -13.4630 C   0  0  0  0  0
  -15.0340  -27.8780  -13.0160 O   0  0  0  0  0
  -16.6010  -26.0140  -12.2760 C   0  0  0  0  0
  -18.0540  -26.3520  -12.0770 N   0  0  0  0  0
  -19.0880  -26.6970  -12.9460 C   0  0  0  0  0
  -20.2530  -26.9380  -12.4070 N   0  0  0  0  0
  -19.9880  -26.7270  -11.0460 C   0  0  0  0  0
  -20.9040  -26.8460   -9.8900 C   0  0  0  0  0
  -22.0980  -27.1550  -10.0260 O   0  0  0  0  0
  -20.2120  -26.5410   -8.6590 N   0  0  0  0  0
  -18.8360  -26.1880   -8.5230 C   0  0  0  0  0
  -18.3150  -25.9350   -7.3370 N   0  0  0  0  0
  -18.0020  -26.0930   -9.6130 N   0  0  0  0  0
  -18.6360  -26.3780  -10.8380 C   0  0  0  0  0
  -18.4004  -25.6178  -20.8658 H   0  0  0  0  0
  -16.7148  -24.1647  -20.3485 H   0  0  0  0  0
  -20.8355  -22.1107  -17.2255 H   0  0  0  0  0
  -18.3711  -25.3070  -17.3078 H   0  0  0  0  0
  -16.5544  -22.5084  -14.7161 H   0  0  0  0  0
  -15.9176  -23.6915  -15.8304 H   0  0  0  0  0
  -14.9453  -23.5031  -13.4716 H   0  0  0  0  0
  -14.9239  -25.7757  -15.2111 H   0  0  0  0  0
  -13.1642  -26.3526  -13.8152 H   0  0  0  0  0
  -16.5469  -27.2015  -14.1646 H   0  0  0  0  0
  -15.6017  -28.5411  -12.6165 H   0  0  0  0  0
  -16.0717  -26.3066  -11.3692 H   0  0  0  0  0
  -18.9318  -26.7624  -14.0228 H   0  0  0  0  0
  -18.8976  -25.9905   -6.5016 H   0  0  0  0  0
  -17.0166  -25.8398   -9.5408 H   0  0  0  0  0
  2  1  1  0  0  0
  1  3  1  0  0  0
  1  4  2  0  0  0
  1  5  1  0  0  0
  6  2  1  0  0  0
  6  7  2  0  0  0
  6  8  1  0  0  0
 12  6  1  0  0  0
  9 10  2  0  0  0
  9 11  1  0  0  0
  9 12  1  0  0  0
  9 13  1  0  0  0
 13 14  1  0  0  0
 14 15  1  0  0  0
 15 16  1  0  0  0
 15 17  1  0  0  0
 16 21  1  0  0  0
 17 18  1  0  0  0
 17 19  1  0  0  0
 19 20  1  0  0  0
 19 21  1  0  0  0
 21 22  1  0  0  0
 22 23  4  0  0  0
 22 32  4  0  0  0
 23 24  4  0  0  0
 24 25  4  0  0  0
 25 26  1  0  0  0
 25 32  4  0  0  0
 26 27  2  0  0  0
 26 28  1  0  0  0
 28 29  4  0  0  0
 29 30  2  0  0  0
 29 31  1  0  0  0
 31 32  1  0  0  0
  3 33  1  0  0  0
  5 34  1  0  0  0
  8 35  1  0  0  0
 11 36  1  0  0  0
 14 37  1  0  0  0
 14 38  1  0  0  0
 15 39  1  0  0  0
 17 40  1  0  0  0
 18 41  1  0  0  0
 19 42  1  0  0  0
 20 43  1  0  0  0
 21 44  1  0  0  0
 23 45  1  0  0  0
 30 46  1  0  0  0
 31 47  1  0  0  0
M  END
$$$$
