3m93_ligand
  -I-interpret- 

 46 48  0  0  0  0  0  0  0  0999 V2000
   -4.5780  -14.4720  -32.6400 P   0  0  0  0  0
   -3.1260  -14.4970  -32.2140 O   0  0  0  0  0
   -5.3470  -15.7750  -32.6150 O   0  0  0  0  0
   -5.4220  -13.3930  -31.7500 O   0  0  0  0  0
   -4.5990  -13.8110  -34.1190 O   0  0  0  0  0
   -6.4150  -12.1940  -32.2600 P   0  0  0  0  0
   -5.8290  -11.3990  -33.4140 O   0  0  0  0  0
   -6.7950  -11.4120  -31.0200 O   0  0  0  0  0
   -7.7410  -12.9530  -32.7940 O   0  0  0  0  0
   -5.3030  -14.3290  -35.2520 C   0  0  0  0  0
   -4.3810  -14.0990  -36.4420 C   0  0  0  0  0
   -3.2150  -14.8980  -36.2570 O   0  0  0  0  0
   -4.9780  -14.5070  -37.7790 C   0  0  0  0  0
   -4.5540  -13.5540  -38.7700 O   0  0  0  0  0
   -4.4120  -15.8910  -38.0680 C   0  0  0  0  0
   -4.0860  -16.0840  -39.4570 O   0  0  0  0  0
   -3.1540  -15.9550  -37.2150 C   0  0  0  0  0
   -2.9440  -17.2340  -36.4920 N   0  3  0  0  0
   -2.8620  -17.3680  -35.1570 C   0  0  0  0  0
   -2.6380  -18.6520  -34.8390 N   0  0  0  0  0
   -2.5010  -19.1760  -33.4550 C   0  0  0  0  0
   -2.5700  -19.3150  -35.9970 C   0  0  0  0  0
   -2.3520  -20.6690  -36.2300 C   0  0  0  0  0
   -2.1850  -21.4820  -35.2930 O   0  0  0  0  0
   -2.3370  -21.0840  -37.5240 N   0  0  0  0  0
   -2.5230  -20.2080  -38.5460 C   0  0  0  0  0
   -2.4970  -20.6590  -39.8160 N   0  0  0  0  0
   -2.7320  -18.8910  -38.3190 N   0  0  0  0  0
   -2.7580  -18.4330  -37.0440 C   0  0  0  0  0
   -2.7601  -13.6117  -32.2764 H   0  0  0  0  0
   -5.6271  -11.9932  -34.1405 H   0  0  0  0  0
   -7.5245  -13.4569  -33.5819 H   0  0  0  0  0
   -6.2632  -13.8314  -35.3880 H   0  0  0  0  0
   -5.5390  -15.3858  -35.1273 H   0  0  0  0  0
   -4.1839  -13.0275  -36.4766 H   0  0  0  0  0
   -6.0678  -14.5297  -37.7801 H   0  0  0  0  0
   -4.9221  -13.7958  -39.6230 H   0  0  0  0  0
   -5.1381  -16.6713  -37.8398 H   0  0  0  0  0
   -3.7351  -16.9687  -39.5822 H   0  0  0  0  0
   -2.3143  -15.8634  -37.9039 H   0  0  0  0  0
   -2.9626  -16.5540  -34.4391 H   0  0  0  0  0
   -1.6614  -18.6847  -32.9633 H   0  0  0  0  0
   -3.4171  -18.9752  -32.8995 H   0  0  0  0  0
   -2.3244  -20.2510  -33.4907 H   0  0  0  0  0
   -2.3388  -21.6493  -40.0024 H   0  0  0  0  0
   -2.8687  -18.2491  -39.0998 H   0  0  0  0  0
  1  2  1  0  0  0
  1  3  2  0  0  0
  1  4  1  0  0  0
  1  5  1  0  0  0
  4  6  1  0  0  0
  5 10  1  0  0  0
  6  7  1  0  0  0
  6  8  2  0  0  0
  6  9  1  0  0  0
 10 11  1  0  0  0
 11 12  1  0  0  0
 11 13  1  0  0  0
 12 17  1  0  0  0
 13 14  1  0  0  0
 13 15  1  0  0  0
 15 16  1  0  0  0
 15 17  1  0  0  0
 17 18  1  0  0  0
 18 19  4  0  0  0
 18 29  4  0  0  0
 19 20  4  0  0  0
 20 21  1  0  0  0
 20 22  4  0  0  0
 22 23  1  0  0  0
 22 29  4  0  0  0
 23 24  2  0  0  0
 23 25  1  0  0  0
 25 26  4  0  0  0
 26 27  2  0  0  0
 26 28  1  0  0  0
 28 29  1  0  0  0
  2 30  1  0  0  0
  7 31  1  0  0  0
  9 32  1  0  0  0
 10 33  1  0  0  0
 10 34  1  0  0  0
 11 35  1  0  0  0
 13 36  1  0  0  0
 14 37  1  0  0  0
 15 38  1  0  0  0
 16 39  1  0  0  0
 17 40  1  0  0  0
 19 41  1  0  0  0
 21 42  1  0  0  0
 21 43  1  0  0  0
 21 44  1  0  0  0
 27 45  1  0  0  0
 28 46  1  0  0  0
M  END
$$$$
