3mi2_ligand
  -I-interpret- 

 35 36  0  0  0  0  0  0  0  0999 V2000
   26.4990  -13.1770   15.0510 P   0  0  0  0  0
   22.6910   -8.2180   15.0150 C   0  0  0  0  0
   21.4520   -8.8650   13.2090 N   0  0  0  0  0
   21.8640   -5.7940   14.9710 O   0  0  0  0  0
   21.8890   -7.1400   14.4910 C   0  0  0  0  0
   22.3810   -9.2470   14.1920 N   0  0  0  0  0
   19.9870   -5.5370   12.8950 O   0  0  0  0  0
   21.1030   -7.5590   13.3590 C   0  0  0  0  0
   19.8770   -7.2350   11.4180 N   0  0  0  0  0
   20.2500   -6.7090   12.5400 C   0  0  0  0  0
   23.6240   -8.1820   16.1410 C   0  0  0  0  0
   27.4940  -12.8010   14.0020 O   0  0  0  0  0
   23.3730   -9.3100   17.1370 C   0  0  0  0  0
   22.7150   -8.8100   18.3180 O   0  0  0  0  0
   25.2280  -13.7530   14.4940 O   0  0  0  0  0
   24.7590   -9.8200   17.4740 C   0  0  0  0  0
   25.3440   -9.0400   18.5260 O   0  0  0  0  0
   27.1290  -13.9320   16.1530 O   0  0  0  0  0
   25.5310   -9.5620   16.1930 C   0  0  0  0  0
   24.9440   -8.4020   15.5990 O   0  0  0  0  0
   25.4060  -10.7250   15.2110 C   0  0  0  0  0
   26.0860  -11.8140   15.8100 O   0  0  0  0  0
   21.2454   -5.2800   14.4468 H   0  0  0  0  0
   19.3305   -6.6863   10.7542 H   0  0  0  0  0
   20.1295   -8.1983   11.1974 H   0  0  0  0  0
   23.5074   -7.2273   16.6539 H   0  0  0  0  0
   27.0518  -12.3132   13.3033 H   0  0  0  0  0
   22.7259  -10.0886   16.7330 H   0  0  0  0  0
   22.5664   -9.5338   18.9308 H   0  0  0  0  0
   24.9047  -13.1886   13.7880 H   0  0  0  0  0
   24.7575  -10.8590   17.8034 H   0  0  0  0  0
   26.2202   -9.3784   18.7244 H   0  0  0  0  0
   26.5896   -9.4352   16.4198 H   0  0  0  0  0
   25.8382  -10.4732   14.2426 H   0  0  0  0  0
   24.3614  -10.9690   15.0177 H   0  0  0  0  0
  1 12  1  0  0  0
  1 15  1  0  0  0
  1 18  2  0  0  0
 22  1  1  0  0  0
  2  5  4  0  0  0
  2  6  4  0  0  0
 11  2  1  0  0  0
  6  3  4  0  0  0
  3  8  4  0  0  0
  5  4  1  0  0  0
  5  8  4  0  0  0
 10  7  2  0  0  0
  8 10  1  0  0  0
 10  9  1  0  0  0
 11 13  1  0  0  0
 20 11  1  0  0  0
 13 14  1  0  0  0
 16 13  1  0  0  0
 16 17  1  0  0  0
 19 16  1  0  0  0
 19 20  1  0  0  0
 21 19  1  0  0  0
 21 22  1  0  0  0
  4 23  1  0  0  0
  9 24  1  0  0  0
  9 25  1  0  0  0
 11 26  1  0  0  0
 12 27  1  0  0  0
 13 28  1  0  0  0
 14 29  1  0  0  0
 15 30  1  0  0  0
 16 31  1  0  0  0
 17 32  1  0  0  0
 19 33  1  0  0  0
 21 34  1  0  0  0
 21 35  1  0  0  0
M  END
$$$$
