3ml4_ligand
  -I-interpret- 

157160  0  0  0  0  0  0  0  0999 V2000
  -87.8420  -23.5100  -22.9630 N   0  3  0  0  0
  -86.7750  -22.6340  -23.5310 C   0  0  0  0  0
  -87.1150  -21.1490  -23.3970 C   0  0  0  0  0
  -88.2870  -20.7660  -23.3340 O   0  0  0  0  0
  -86.5080  -22.9780  -24.9990 C   0  0  0  0  0
  -85.8000  -24.2840  -25.3760 C   0  0  0  0  0
  -85.6520  -24.3720  -26.8920 C   0  0  0  0  0
  -84.4400  -24.4090  -24.7050 C   0  0  0  0  0
  -86.0740  -20.3220  -23.3640 N   0  0  0  0  0
  -86.2180  -18.8910  -23.1080 C   0  0  0  0  0
  -86.0800  -18.0920  -24.4060 C   0  0  0  0  0
  -85.0270  -18.1360  -25.0500 O   0  0  0  0  0
  -85.1730  -18.4280  -22.0780 C   0  0  0  0  0
  -85.3740  -18.9880  -20.6990 C   0  0  0  0  0
  -84.7840  -18.4510  -19.5740 N   0  0  0  0  0
  -86.1290  -20.0250  -20.2640 C   0  0  0  0  0
  -85.1520  -19.1410  -18.5100 C   0  0  0  0  0
  -85.9700  -20.1000  -18.9010 N   0  0  0  0  0
  -87.1520  -17.3850  -24.8150 N   0  0  0  0  0
  -87.0480  -16.4690  -25.9580 C   0  0  0  0  0
  -86.1400  -15.2770  -25.6480 C   0  0  0  0  0
  -85.9480  -14.9350  -24.4810 O   0  0  0  0  0
  -88.4940  -16.0100  -26.1860 C   0  0  0  0  0
  -89.2090  -16.2820  -24.9040 C   0  0  0  0  0
  -88.5170  -17.4310  -24.2530 C   0  0  0  0  0
  -85.5800  -14.6640  -26.6880 N   0  0  0  0  0
  -84.6370  -13.5590  -26.5220 C   0  0  0  0  0
  -85.2810  -12.2150  -26.8460 C   0  0  0  0  0
  -85.7000  -11.9900  -27.9820 O   0  0  0  0  0
  -83.3770  -13.7870  -27.3780 C   0  0  0  0  0
  -82.3190  -12.6910  -27.2010 C   0  0  0  0  0
  -82.3460  -11.9260  -26.2400 O   0  0  0  0  0
  -81.3760  -12.6250  -28.1360 N   0  0  0  0  0
  -85.3780  -11.3240  -25.8420 N   0  0  0  0  0
  -85.8960   -9.9640  -26.0480 C   0  0  0  0  0
  -85.0330   -9.1140  -26.9880 C   0  0  0  0  0
  -85.5580   -8.2200  -27.6570 O   0  0  0  0  0
  -85.9000   -9.3680  -24.6350 C   0  0  0  0  0
  -85.8730  -10.5560  -23.7150 C   0  0  0  0  0
  -85.0370  -11.5650  -24.4290 C   0  0  0  0  0
  -83.7290   -9.3960  -27.0370 N   0  0  0  0  0
  -82.8100   -8.6820  -27.9300 C   0  0  0  0  0
  -83.0090   -9.0140  -29.4110 C   0  0  0  0  0
  -82.6170   -8.2290  -30.2810 O   0  0  0  0  0
  -81.3500   -8.9390  -27.5410 C   0  0  0  0  0
  -80.8020   -8.0390  -26.4300 C   0  0  0  0  0
  -81.1520   -6.2660  -26.6400 S   0  0  0  0  0
  -79.5160   -5.5880  -26.3760 C   0  0  0  0  0
  -83.6250  -10.1670  -29.6860 N   0  0  0  0  0
  -83.7100  -10.7130  -31.0450 C   0  0  0  0  0
  -84.4110   -9.8070  -32.0600 C   0  0  0  0  0
  -83.8130   -9.4330  -33.0670 O   0  0  0  0  0
  -84.3310  -12.1130  -31.0600 C   0  0  0  0  0
  -84.2020  -12.8260  -32.3880 C   0  0  0  0  0
  -82.9510  -13.1980  -32.8900 C   0  0  0  0  0
  -85.3290  -13.1110  -33.1550 C   0  0  0  0  0
  -82.8310  -13.8470  -34.1110 C   0  0  0  0  0
  -85.2220  -13.7600  -34.3790 C   0  0  0  0  0
  -83.9680  -14.1140  -34.8620 C   0  0  0  0  0
  -83.8470  -14.7190  -35.9370 O   0  0  0  0  0
  -84.2970  -14.1930  -37.3950 P   0  0  0  0  0
  -83.4240  -13.0600  -37.7780 O   0  0  0  0  0
  -85.7710  -13.7580  -37.4040 O   0  0  0  0  0
  -84.1300  -15.3610  -38.3820 O   0  0  0  0  0
  -85.6670   -9.4560  -31.7920 N   0  0  0  0  0
  -86.4580   -8.6320  -32.7220 C   0  0  0  0  0
  -85.9920   -7.1660  -32.8380 C   0  0  0  0  0
  -86.6440   -6.3550  -33.4930 O   0  0  0  0  0
  -87.9480   -8.7010  -32.3710 C   0  0  0  0  0
  -84.8630   -6.8390  -32.2150 N   0  0  0  0  0
  -84.2800   -5.5000  -32.3190 C   0  0  0  0  0
  -83.0720   -5.4930  -33.2590 C   0  0  0  0  0
  -82.9956   -6.3020  -34.2219 O   0  0  0  0  0
  -83.8860   -4.9700  -30.9360 C   0  0  0  0  0
  -85.0690   -4.6670  -30.0270 C   0  0  0  0  0
  -84.6490   -4.6120  -28.5650 C   0  0  0  0  0
  -85.7890   -4.7730  -27.6620 N   0  0  0  0  0
  -85.6930   -5.0670  -26.3670 C   0  0  0  0  0
  -84.5040   -5.2430  -25.8000 N   0  0  0  0  0
  -86.7910   -5.1910  -25.6310 N   0  0  0  0  0
  -82.1406   -4.6664  -33.0671 O   0  0  0  0  0
  -88.0005  -23.2612  -21.9866 H   0  0  0  0  0
  -88.7042  -23.3804  -23.4924 H   0  0  0  0  0
  -87.5478  -24.4848  -23.0233 H   0  0  0  0  0
  -85.8721  -22.8229  -22.9503 H   0  0  0  0  0
  -85.8279  -22.1966  -25.3382 H   0  0  0  0  0
  -87.5015  -23.0755  -25.4367 H   0  0  0  0  0
  -86.4141  -25.1111  -25.0199 H   0  0  0  0  0
  -85.0070  -23.5653  -27.2402 H   0  0  0  0  0
  -85.2102  -25.3324  -27.1575 H   0  0  0  0  0
  -86.6334  -24.2809  -27.3575 H   0  0  0  0  0
  -83.9950  -25.3695  -24.9647 H   0  0  0  0  0
  -83.7918  -23.6024  -25.0475 H   0  0  0  0  0
  -84.5624  -24.3443  -23.6238 H   0  0  0  0  0
  -85.1405  -20.7009  -23.5233 H   0  0  0  0  0
  -87.2135  -18.7114  -22.7020 H   0  0  0  0  0
  -85.2583  -17.3442  -21.9996 H   0  0  0  0  0
  -84.2015  -18.7774  -22.4276 H   0  0  0  0  0
  -86.7472  -20.6781  -20.8800 H   0  0  0  0  0
  -84.8346  -18.9511  -17.4847 H   0  0  0  0  0
  -86.6066  -16.9466  -26.8328 H   0  0  0  0  0
  -88.9539  -16.5416  -27.0190 H   0  0  0  0  0
  -88.5394  -14.9537  -26.4510 H   0  0  0  0  0
  -90.2567  -16.5184  -25.0898 H   0  0  0  0  0
  -89.1892  -15.4042  -24.2581 H   0  0  0  0  0
  -88.5207  -17.3554  -23.1656 H   0  0  0  0  0
  -89.0148  -18.3805  -24.4497 H   0  0  0  0  0
  -85.8160  -14.9747  -27.6304 H   0  0  0  0  0
  -84.3407  -13.5322  -25.4734 H   0  0  0  0  0
  -83.6836  -13.7839  -28.4240 H   0  0  0  0  0
  -82.9307  -14.7304  -27.0636 H   0  0  0  0  0
  -80.6408  -11.9210  -28.0701 H   0  0  0  0  0
  -81.3878  -13.2783  -28.9192 H   0  0  0  0  0
  -86.8741   -9.9830  -26.5286 H   0  0  0  0  0
  -86.7751   -8.7416  -24.4621 H   0  0  0  0  0
  -85.0473   -8.7091  -24.4709 H   0  0  0  0  0
  -86.8743  -10.9316  -23.5044 H   0  0  0  0  0
  -85.4627  -10.3051  -22.7368 H   0  0  0  0  0
  -83.9719  -11.4577  -24.2237 H   0  0  0  0  0
  -85.2392  -12.5877  -24.1106 H   0  0  0  0  0
  -83.3599  -10.1314  -26.4342 H   0  0  0  0  0
  -83.0477   -7.6259  -27.8028 H   0  0  0  0  0
  -80.7502   -8.7397  -28.4291 H   0  0  0  0  0
  -81.3015   -9.9617  -27.1672 H   0  0  0  0  0
  -79.7177   -8.1503  -26.4391 H   0  0  0  0  0
  -81.2865   -8.3492  -25.5042 H   0  0  0  0  0
  -79.1701   -5.8552  -25.3775 H   0  0  0  0  0
  -78.8311   -5.9947  -27.1201 H   0  0  0  0  0
  -79.5543   -4.5028  -26.4703 H   0  0  0  0  0
  -84.0531  -10.6883  -28.9209 H   0  0  0  0  0
  -82.6720  -10.7775  -31.3715 H   0  0  0  0  0
  -85.3955  -11.9979  -30.8557 H   0  0  0  0  0
  -83.8014  -12.7107  -30.3181 H   0  0  0  0  0
  -82.0542  -12.9743  -32.3122 H   0  0  0  0  0
  -86.3132  -12.8196  -32.7883 H   0  0  0  0  0
  -81.8492  -14.1456  -34.4785 H   0  0  0  0  0
  -86.1169  -13.9902  -34.9572 H   0  0  0  0  0
  -86.3244  -14.5016  -37.1541 H   0  0  0  0  0
  -84.7024  -16.0853  -38.1187 H   0  0  0  0  0
  -86.0932   -9.7662  -30.9188 H   0  0  0  0  0
  -86.2907   -9.0661  -33.7077 H   0  0  0  0  0
  -88.2881   -9.7344  -32.4375 H   0  0  0  0  0
  -88.0984   -8.3322  -31.3564 H   0  0  0  0  0
  -88.5136   -8.0853  -33.0704 H   0  0  0  0  0
  -84.3893   -7.5422  -31.6479 H   0  0  0  0  0
  -85.0385   -4.8397  -32.7395 H   0  0  0  0  0
  -83.3493   -4.0339  -31.0900 H   0  0  0  0  0
  -83.2955   -5.7461  -30.4492 H   0  0  0  0  0
  -85.8071   -5.4604  -30.1447 H   0  0  0  0  0
  -85.4787   -3.6961  -30.3054 H   0  0  0  0  0
  -84.1987   -3.6376  -28.3757 H   0  0  0  0  0
  -83.9493   -5.4271  -28.3800 H   0  0  0  0  0
  -86.7235   -4.6514  -28.0523 H   0  0  0  0  0
  -84.4409   -5.4712  -24.8079 H   0  0  0  0  0
  -83.6546   -5.1499  -26.3570 H   0  0  0  0  0
  -87.7083   -5.0610  -26.0576 H   0  0  0  0  0
  -82.3471   -4.1255  -32.3014 H   0  0  0  0  0
  1  2  1  0  0  0
  2  3  1  0  0  0
  2  5  1  0  0  0
  3  4  2  0  0  0
  3  9  1  0  0  0
  5  6  1  0  0  0
  6  7  1  0  0  0
  6  8  1  0  0  0
  9 10  1  0  0  0
 10 11  1  0  0  0
 10 13  1  0  0  0
 11 12  2  0  0  0
 11 19  1  0  0  0
 13 14  1  0  0  0
 14 15  4  0  0  0
 14 16  4  0  0  0
 15 17  4  0  0  0
 16 18  4  0  0  0
 17 18  4  0  0  0
 19 20  1  0  0  0
 19 25  1  0  0  0
 20 21  1  0  0  0
 20 23  1  0  0  0
 21 22  2  0  0  0
 21 26  1  0  0  0
 23 24  1  0  0  0
 24 25  1  0  0  0
 26 27  1  0  0  0
 27 28  1  0  0  0
 27 30  1  0  0  0
 28 29  2  0  0  0
 28 34  1  0  0  0
 30 31  1  0  0  0
 31 32  2  0  0  0
 31 33  1  0  0  0
 34 35  1  0  0  0
 34 40  1  0  0  0
 35 36  1  0  0  0
 35 38  1  0  0  0
 36 37  2  0  0  0
 36 41  1  0  0  0
 38 39  1  0  0  0
 39 40  1  0  0  0
 41 42  1  0  0  0
 42 43  1  0  0  0
 42 45  1  0  0  0
 43 44  2  0  0  0
 43 49  1  0  0  0
 45 46  1  0  0  0
 46 47  1  0  0  0
 47 48  1  0  0  0
 49 50  1  0  0  0
 50 51  1  0  0  0
 50 53  1  0  0  0
 51 52  2  0  0  0
 51 65  1  0  0  0
 53 54  1  0  0  0
 54 55  4  0  0  0
 54 56  4  0  0  0
 55 57  4  0  0  0
 56 58  4  0  0  0
 57 59  4  0  0  0
 58 59  4  0  0  0
 59 60  1  0  0  0
 60 61  1  0  0  0
 61 62  2  0  0  0
 61 63  1  0  0  0
 61 64  1  0  0  0
 65 66  1  0  0  0
 66 67  1  0  0  0
 66 69  1  0  0  0
 67 68  2  0  0  0
 67 70  1  0  0  0
 70 71  1  0  0  0
 71 72  1  0  0  0
 71 74  1  0  0  0
 72 73  2  0  0  0
 74 75  1  0  0  0
 75 76  1  0  0  0
 76 77  1  0  0  0
 77 78  1  0  0  0
 78 79  1  0  0  0
 78 80  2  0  0  0
 72 81  1  0  0  0
  1 82  1  0  0  0
  1 83  1  0  0  0
  1 84  1  0  0  0
  2 85  1  0  0  0
  5 86  1  0  0  0
  5 87  1  0  0  0
  6 88  1  0  0  0
  7 89  1  0  0  0
  7 90  1  0  0  0
  7 91  1  0  0  0
  8 92  1  0  0  0
  8 93  1  0  0  0
  8 94  1  0  0  0
  9 95  1  0  0  0
 10 96  1  0  0  0
 13 97  1  0  0  0
 13 98  1  0  0  0
 16 99  1  0  0  0
 17100  1  0  0  0
 20101  1  0  0  0
 23102  1  0  0  0
 23103  1  0  0  0
 24104  1  0  0  0
 24105  1  0  0  0
 25106  1  0  0  0
 25107  1  0  0  0
 26108  1  0  0  0
 27109  1  0  0  0
 30110  1  0  0  0
 30111  1  0  0  0
 33112  1  0  0  0
 33113  1  0  0  0
 35114  1  0  0  0
 38115  1  0  0  0
 38116  1  0  0  0
 39117  1  0  0  0
 39118  1  0  0  0
 40119  1  0  0  0
 40120  1  0  0  0
 41121  1  0  0  0
 42122  1  0  0  0
 45123  1  0  0  0
 45124  1  0  0  0
 46125  1  0  0  0
 46126  1  0  0  0
 48127  1  0  0  0
 48128  1  0  0  0
 48129  1  0  0  0
 49130  1  0  0  0
 50131  1  0  0  0
 53132  1  0  0  0
 53133  1  0  0  0
 55134  1  0  0  0
 56135  1  0  0  0
 57136  1  0  0  0
 58137  1  0  0  0
 63138  1  0  0  0
 64139  1  0  0  0
 65140  1  0  0  0
 66141  1  0  0  0
 69142  1  0  0  0
 69143  1  0  0  0
 69144  1  0  0  0
 70145  1  0  0  0
 71146  1  0  0  0
 74147  1  0  0  0
 74148  1  0  0  0
 75149  1  0  0  0
 75150  1  0  0  0
 76151  1  0  0  0
 76152  1  0  0  0
 77153  1  0  0  0
 79154  1  0  0  0
 79155  1  0  0  0
 80156  1  0  0  0
 81157  1  0  0  0
M  END
$$$$
