3n75_ligand
  -I-interpret- 

 52 54  0  0  0  0  0  0  0  0999 V2000
   54.0650   18.9350  112.8620 P   0  0  0  0  0
   53.1350   18.7240  111.7040 O   0  0  0  0  0
   53.4300   18.7050  114.2030 O   0  0  0  0  0
   55.4570   18.3350  112.7450 O   0  0  0  0  0
   54.3750   20.5170  112.7530 O   0  0  0  0  0
   53.2950   21.7130  112.5700 P   0  0  0  0  0
   51.9700   21.3780  113.2060 O   0  0  0  0  0
   54.0110   22.9860  112.9280 O   0  0  0  0  0
   53.0550   21.7660  110.9980 O   0  0  0  0  0
   54.0920   22.1840  110.1080 C   0  0  0  0  0
   53.4810   22.0570  108.7270 C   0  0  0  0  0
   52.5150   23.0930  108.5400 O   0  0  0  0  0
   54.4850   22.1710  107.6020 C   0  0  0  0  0
   54.8260   20.8520  107.1650 O   0  0  0  0  0
   53.7100   22.8700  106.5100 C   0  0  0  0  0
   53.0230   21.8550  105.7470 O   0  0  0  0  0
   52.6010   23.6310  107.2240 C   0  0  0  0  0
   52.7070   25.1070  107.3510 N   0  0  0  0  0
   51.7040   25.9320  107.0070 C   0  0  0  0  0
   52.0590   27.2040  107.2570 N   0  0  0  0  0
   53.2920   27.1740  107.7770 C   0  0  0  0  0
   54.1410   28.1670  108.2230 C   0  0  0  0  0
   53.7890   29.3610  108.1810 O   0  0  0  0  0
   55.3490   27.8400  108.7160 N   0  0  0  0  0
   55.7320   26.5460  108.7790 C   0  0  0  0  0
   56.9560   26.2410  109.2780 N   0  0  0  0  0
   54.9210   25.5530  108.3560 N   0  0  0  0  0
   53.6990   25.8470  107.8480 C   0  0  0  0  0
   56.3290   20.5250  106.6680 P   0  0  0  0  0
   57.0000   21.8200  106.2610 O   0  0  0  0  0
   56.9920   19.7010  107.7540 O   0  0  0  0  0
   56.1670   19.5570  105.3750 O   0  0  0  0  0
   54.8080   19.0770  104.6380 P   0  0  0  0  0
   54.2020   20.3430  104.0900 O   0  0  0  0  0
   53.9770   18.3480  105.6720 O   0  0  0  0  0
   55.3530   18.1450  103.5810 O   0  0  0  0  0
   54.0793   18.8571  114.8936 H   0  0  0  0  0
   55.9576   18.5334  113.5398 H   0  0  0  0  0
   51.6570   20.5364  112.8663 H   0  0  0  0  0
   54.9910   21.5769  110.2144 H   0  0  0  0  0
   54.4235   23.2013  110.3161 H   0  0  0  0  0
   53.0405   21.0608  108.6860 H   0  0  0  0  0
   55.4010   22.6926  107.8795 H   0  0  0  0  0
   54.3556   23.4923  105.8903 H   0  0  0  0  0
   52.5201   22.2710  105.0430 H   0  0  0  0  0
   51.7281   23.4937  106.5857 H   0  0  0  0  0
   50.7478   25.6176  106.5888 H   0  0  0  0  0
   57.5752   26.9848  109.6002 H   0  0  0  0  0
   55.2275   24.5822  108.4186 H   0  0  0  0  0
   56.4714   18.9112  107.9177 H   0  0  0  0  0
   54.4441   17.5598  105.9585 H   0  0  0  0  0
   55.7207   17.3649  104.0027 H   0  0  0  0  0
  1  2  2  0  0  0
  1  3  1  0  0  0
  1  4  1  0  0  0
  1  5  1  0  0  0
  5  6  1  0  0  0
  6  7  1  0  0  0
  6  8  2  0  0  0
  6  9  1  0  0  0
  9 10  1  0  0  0
 10 11  1  0  0  0
 11 12  1  0  0  0
 11 13  1  0  0  0
 12 17  1  0  0  0
 13 14  1  0  0  0
 13 15  1  0  0  0
 14 29  1  0  0  0
 15 16  1  0  0  0
 15 17  1  0  0  0
 17 18  1  0  0  0
 18 19  4  0  0  0
 18 28  4  0  0  0
 19 20  4  0  0  0
 20 21  4  0  0  0
 21 22  1  0  0  0
 21 28  4  0  0  0
 22 23  2  0  0  0
 22 24  1  0  0  0
 24 25  4  0  0  0
 25 26  2  0  0  0
 25 27  1  0  0  0
 27 28  1  0  0  0
 29 30  2  0  0  0
 29 31  1  0  0  0
 29 32  1  0  0  0
 32 33  1  0  0  0
 33 34  2  0  0  0
 33 35  1  0  0  0
 33 36  1  0  0  0
  3 37  1  0  0  0
  4 38  1  0  0  0
  7 39  1  0  0  0
 10 40  1  0  0  0
 10 41  1  0  0  0
 11 42  1  0  0  0
 13 43  1  0  0  0
 15 44  1  0  0  0
 16 45  1  0  0  0
 17 46  1  0  0  0
 19 47  1  0  0  0
 26 48  1  0  0  0
 27 49  1  0  0  0
 31 50  1  0  0  0
 35 51  1  0  0  0
 36 52  1  0  0  0
M  END
$$$$
