3ntp_ligand
  -I-interpret- 

 60 62  0  0  0  0  0  0  0  0999 V2000
   -6.2450   46.7980   79.9890 P   0  0  0  0  0
   -5.9970   40.9080   80.0760 C   0  0  0  0  0
   -5.4850   41.4860   81.3320 N   0  3  0  0  0
   -7.9590   39.7820   79.4240 O   0  0  0  0  0
   -4.5720   40.5280   81.9730 C   0  0  0  0  0
   -8.0820   41.0680   81.2650 N   0  0  0  0  0
   -5.8100   43.3180   85.4150 O   0  0  0  0  0
   -4.3250   39.3850   80.9970 C   0  0  0  0  0
  -11.3790   38.0530   84.3860 N   0  0  0  0  0
   -5.2270   39.6240   79.7950 C   0  0  0  0  0
   -5.1520   43.5470   83.2810 N   0  0  0  0  0
   -4.7950   42.7580   81.0810 C   0  0  0  0  0
   -7.4380   40.5390   80.2300 C   0  0  0  0  0
   -9.4770   40.8480   81.6320 C   0  0  0  0  0
   -9.4730   40.9970   83.1520 C   0  0  0  0  0
   -5.4820   43.8570   81.8920 C   0  0  0  0  0
   -4.8430   45.2160   81.6190 C   0  0  0  0  0
   -6.0710   43.5820   84.2460 C   0  0  0  0  0
   -7.4500   43.9750   83.8080 C   0  0  0  0  0
   -6.3510   46.8270   78.4830 O   0  0  0  0  0
  -10.0500   39.7710   83.8230 C   0  0  0  0  0
  -11.2470   39.1340   83.5470 C   0  0  0  0  0
  -10.2900   37.9690   85.1960 C   0  0  0  0  0
   -9.4160   38.9980   84.9080 C   0  0  0  0  0
   -8.2010   39.1760   85.5780 C   0  0  0  0  0
   -7.9110   38.2300   86.5820 C   0  0  0  0  0
   -8.8020   37.1860   86.8710 C   0  0  0  0  0
  -10.0080   37.0370   86.1830 C   0  0  0  0  0
   -5.6180   48.0430   80.5720 O   0  0  0  0  0
   -7.4830   46.2920   80.6850 O   0  0  0  0  0
   -5.1580   45.6400   80.2900 O   0  0  0  0  0
   -5.8814   41.6355   79.2726 H   0  0  0  0  0
   -6.2719   41.6738   81.9532 H   0  0  0  0  0
   -5.0130   40.1471   82.8942 H   0  0  0  0  0
   -3.6310   41.0167   82.2254 H   0  0  0  0  0
   -7.5449   41.6933   81.8658 H   0  0  0  0  0
   -4.5488   38.4251   81.4624 H   0  0  0  0  0
   -3.2783   39.3557   80.6941 H   0  0  0  0  0
   -4.6407   39.7143   78.8806 H   0  0  0  0  0
   -5.9084   38.7862   79.6474 H   0  0  0  0  0
   -4.1922   43.2969   83.5189 H   0  0  0  0  0
   -4.8386   42.9995   80.0190 H   0  0  0  0  0
   -3.7495   42.6770   81.3785 H   0  0  0  0  0
   -9.8458   39.8747   81.3084 H   0  0  0  0  0
  -10.1531   41.5507   81.1449 H   0  0  0  0  0
  -10.0838   41.8595   83.4187 H   0  0  0  0  0
   -8.4434   41.1246   83.4864 H   0  0  0  0  0
   -6.5457   43.8965   81.6572 H   0  0  0  0  0
   -3.7612   45.1338   81.7246 H   0  0  0  0  0
   -5.2283   45.9455   82.3313 H   0  0  0  0  0
   -8.1463   43.1682   84.0369 H   0  0  0  0  0
   -7.7535   44.8792   84.3356 H   0  0  0  0  0
   -7.4492   44.1623   82.7342 H   0  0  0  0  0
   -5.5300   47.1584   78.1119 H   0  0  0  0  0
  -11.9675   39.4394   82.7883 H   0  0  0  0  0
   -7.5217   39.9942   85.3389 H   0  0  0  0  0
   -6.9797   38.3111   87.1426 H   0  0  0  0  0
   -8.5462   36.4718   87.6537 H   0  0  0  0  0
  -10.6971   36.2240   86.4118 H   0  0  0  0  0
   -4.8417   48.2793   80.0590 H   0  0  0  0  0
  1 20  1  0  0  0
  1 29  1  0  0  0
  1 30  2  0  0  0
 31  1  1  0  0  0
  2  3  1  0  0  0
  2 10  1  0  0  0
 13  2  1  0  0  0
  3  5  1  0  0  0
  3 12  1  0  0  0
 13  4  2  0  0  0
  8  5  1  0  0  0
  6 13  1  0  0  0
 14  6  1  0  0  0
 18  7  2  0  0  0
 10  8  1  0  0  0
 22  9  4  0  0  0
  9 23  4  0  0  0
 16 11  1  0  0  0
 11 18  1  0  0  0
 12 16  1  0  0  0
 15 14  1  0  0  0
 21 15  1  0  0  0
 16 17  1  0  0  0
 17 31  1  0  0  0
 18 19  1  0  0  0
 21 22  4  0  0  0
 21 24  4  0  0  0
 23 24  4  0  0  0
 23 28  4  0  0  0
 24 25  4  0  0  0
 25 26  4  0  0  0
 26 27  4  0  0  0
 27 28  4  0  0  0
  2 32  1  0  0  0
  3 33  1  0  0  0
  5 34  1  0  0  0
  5 35  1  0  0  0
  6 36  1  0  0  0
  8 37  1  0  0  0
  8 38  1  0  0  0
 10 39  1  0  0  0
 10 40  1  0  0  0
 11 41  1  0  0  0
 12 42  1  0  0  0
 12 43  1  0  0  0
 14 44  1  0  0  0
 14 45  1  0  0  0
 15 46  1  0  0  0
 15 47  1  0  0  0
 16 48  1  0  0  0
 17 49  1  0  0  0
 17 50  1  0  0  0
 19 51  1  0  0  0
 19 52  1  0  0  0
 19 53  1  0  0  0
 20 54  1  0  0  0
 22 55  1  0  0  0
 25 56  1  0  0  0
 26 57  1  0  0  0
 27 58  1  0  0  0
 28 59  1  0  0  0
 29 60  1  0  0  0
M  END
$$$$
