3oka_ligand
  -I-interpret- 

 42 44  0  0  0  0  0  0  0  0999 V2000
   23.7730    9.8250   83.3470 N   0  0  0  0  0
   22.4610    9.6460   83.6370 C   0  0  0  0  0
   21.5320    9.7430   82.6500 N   0  0  0  0  0
   22.0870    9.3730   84.9120 N   0  0  0  0  0
   20.7740    9.1890   85.2210 C   0  0  0  0  0
   19.8110    9.2840   84.2230 C   0  0  0  0  0
   20.2150    9.5660   82.9200 C   0  0  0  0  0
   19.3720    9.6570   82.0040 O   0  0  0  0  0
   18.6070    9.0610   84.7980 N   0  0  0  0  0
   18.8220    8.8340   86.1160 C   0  0  0  0  0
   20.1420    8.9130   86.3680 N   0  0  0  0  0
   20.8100    8.7350   87.6860 C   0  0  0  0  0
   20.4950    9.9020   88.6140 C   0  0  0  0  0
   21.4720   10.9420   88.5240 O   0  0  0  0  0
   20.4720    9.2710   89.9900 C   0  0  0  0  0
   21.7760    9.3180   90.5780 O   0  0  0  0  0
   20.0980    7.8180   89.7430 C   0  0  0  0  0
   20.3490    7.5540   88.3540 O   0  0  0  0  0
   18.6400    7.5690   90.1270 C   0  0  0  0  0
   17.9170    6.9480   89.0570 O   0  0  0  0  0
   16.8540    6.0040   89.3220 P   0  0  0  0  0
   15.7970    6.4560   88.8280 O   0  0  0  0  0
   17.1560    4.9290   88.7670 O   0  0  0  0  0
   16.6970    5.8170   90.7640 O   0  0  0  0  0
   16.0970    4.6700   91.4310 P   0  0  0  0  0
   14.9930    4.3850   90.9200 O   0  0  0  0  0
   16.8570    3.6820   91.3540 O   0  0  0  0  0
   15.8970    4.9750   92.8260 O   0  0  0  0  0
   24.0603   10.0318   82.3904 H   0  0  0  0  0
   22.7941    9.3051   85.6440 H   0  0  0  0  0
   18.0493    8.6213   86.8548 H   0  0  0  0  0
   21.8780    8.6681   87.4789 H   0  0  0  0  0
   19.5548   10.3912   88.3593 H   0  0  0  0  0
   21.2356   11.6543   89.1226 H   0  0  0  0  0
   19.7820    9.7841   90.6599 H   0  0  0  0  0
   21.7478    8.9153   91.4490 H   0  0  0  0  0
   20.6909    7.1413   90.3583 H   0  0  0  0  0
   18.1721    8.5277   90.3507 H   0  0  0  0  0
   18.6179    6.9051   90.9912 H   0  0  0  0  0
   15.5712    7.2830   89.2601 H   0  0  0  0  0
   14.4087    5.1444   90.9791 H   0  0  0  0  0
   15.3141    5.7335   92.9062 H   0  0  0  0  0
  1  2  2  0  0  0
  2  3  4  0  0  0
  2  4  1  0  0  0
  3  7  1  0  0  0
  4  5  1  0  0  0
  5  6  4  0  0  0
  5 11  4  0  0  0
  6  7  1  0  0  0
  6  9  4  0  0  0
  7  8  2  0  0  0
  9 10  4  0  0  0
 10 11  4  0  0  0
 11 12  1  0  0  0
 12 13  1  0  0  0
 12 18  1  0  0  0
 13 14  1  0  0  0
 13 15  1  0  0  0
 15 16  1  0  0  0
 15 17  1  0  0  0
 17 18  1  0  0  0
 17 19  1  0  0  0
 19 20  1  0  0  0
 20 21  1  0  0  0
 21 22  1  0  0  0
 21 23  2  0  0  0
 21 24  1  0  0  0
 24 25  1  0  0  0
 25 26  1  0  0  0
 25 27  2  0  0  0
 25 28  1  0  0  0
  1 29  1  0  0  0
  4 30  1  0  0  0
 10 31  1  0  0  0
 12 32  1  0  0  0
 13 33  1  0  0  0
 14 34  1  0  0  0
 15 35  1  0  0  0
 16 36  1  0  0  0
 17 37  1  0  0  0
 19 38  1  0  0  0
 19 39  1  0  0  0
 22 40  1  0  0  0
 26 41  1  0  0  0
 28 42  1  0  0  0
M  END
$$$$
