3okc_ligand
  -I-interpret- 

 42 44  0  0  0  0  0  0  0  0999 V2000
    4.4720    6.0800   26.3160 P   0  0  0  0  0
    5.2130    5.3030   25.3300 O   0  0  0  0  0
    4.9650    5.9140   27.4490 O   0  0  0  0  0
    3.2960    5.6580   26.3400 O   0  0  0  0  0
    4.4680    7.4900   25.9540 O   0  0  0  0  0
    5.5870    8.4250   26.0470 P   0  0  0  0  0
    5.8790    8.6360   27.2460 O   0  0  0  0  0
    5.2380    9.5190   25.5310 O   0  0  0  0  0
    6.7640    7.9160   25.3600 O   0  0  0  0  0
    6.7950    7.7700   23.9380 C   0  0  0  0  0
    8.2280    7.8240   23.4180 C   0  0  0  0  0
    8.3330    7.0940   22.1820 O   0  0  0  0  0
    8.6410    9.2640   23.1390 C   0  0  0  0  0
    9.9510    9.5080   23.6610 O   0  0  0  0  0
    8.6560    9.3750   21.6280 C   0  0  0  0  0
    9.6910   10.2560   21.1840 O   0  0  0  0  0
    8.8760    7.9400   21.1580 C   0  0  0  0  0
    8.2580    7.7210   19.8200 N   0  0  0  0  0
    6.9470    7.6610   19.5200 C   0  0  0  0  0
    6.8060    7.4550   18.1870 N   0  0  0  0  0
    8.0460    7.3880   17.6510 C   0  0  0  0  0
    8.5300    7.1960   16.3580 C   0  0  0  0  0
    7.7390    7.0430   15.4020 O   0  0  0  0  0
    9.8670    7.1770   16.1390 N   0  0  0  0  0
   10.7400    7.3410   17.1650 C   0  0  0  0  0
   12.0740    7.3210   16.9320 N   0  0  0  0  0
   10.2900    7.5310   18.4280 N   0  0  0  0  0
    8.9550    7.5580   18.6880 C   0  0  0  0  0
    4.8260    5.4374   24.4618 H   0  0  0  0  0
    2.8969    5.7767   25.4750 H   0  0  0  0  0
    5.0095    9.3783   24.6093 H   0  0  0  0  0
    6.2276    8.5851   23.4889 H   0  0  0  0  0
    6.3621    6.8050   23.6746 H   0  0  0  0  0
    8.8745    7.3871   24.1791 H   0  0  0  0  0
    7.9677    9.9857   23.6015 H   0  0  0  0  0
   10.2020   10.4168   23.4805 H   0  0  0  0  0
    7.7379    9.8003   21.2228 H   0  0  0  0  0
    9.6769   10.3070   20.2255 H   0  0  0  0  0
    9.9324    7.7103   21.0187 H   0  0  0  0  0
    6.1297    7.7618   20.2341 H   0  0  0  0  0
   12.4241    7.1825   15.9840 H   0  0  0  0  0
   10.9568    7.6548   19.1899 H   0  0  0  0  0
  1  2  1  0  0  0
  1  3  2  0  0  0
  1  4  1  0  0  0
  1  5  1  0  0  0
  5  6  1  0  0  0
  6  7  2  0  0  0
  6  8  1  0  0  0
  6  9  1  0  0  0
  9 10  1  0  0  0
 10 11  1  0  0  0
 11 12  1  0  0  0
 11 13  1  0  0  0
 12 17  1  0  0  0
 13 14  1  0  0  0
 13 15  1  0  0  0
 15 16  1  0  0  0
 15 17  1  0  0  0
 17 18  1  0  0  0
 18 19  4  0  0  0
 18 28  4  0  0  0
 19 20  4  0  0  0
 20 21  4  0  0  0
 21 22  1  0  0  0
 21 28  4  0  0  0
 22 23  2  0  0  0
 22 24  1  0  0  0
 24 25  4  0  0  0
 25 26  2  0  0  0
 25 27  1  0  0  0
 27 28  1  0  0  0
  2 29  1  0  0  0
  4 30  1  0  0  0
  8 31  1  0  0  0
 10 32  1  0  0  0
 10 33  1  0  0  0
 11 34  1  0  0  0
 13 35  1  0  0  0
 14 36  1  0  0  0
 15 37  1  0  0  0
 16 38  1  0  0  0
 17 39  1  0  0  0
 19 40  1  0  0  0
 26 41  1  0  0  0
 27 42  1  0  0  0
M  END
$$$$
