3qlb_ligand
  -I-interpret- 

 55 61  0  0  0  0  0  0  0  0999 V2000
   57.5900  -16.0660  -10.8230 C   0  0  0  0  0
   56.4440  -16.4030  -11.0470 O   0  0  0  0  0
   58.6730  -17.0670  -11.0390 Du  0  0  0  0  0
   57.7650  -14.6410  -10.2960 C   0  0  0  0  0
   57.3970  -14.5770   -8.7930 C   0  0  0  0  0
   56.3090  -15.5070   -8.6650 O   0  0  0  0  0
   58.6050  -14.9830   -7.9200 C   0  0  0  0  0
   59.8930  -14.3860   -8.4820 C   0  0  0  0  0
   60.5070  -13.5290   -7.7900 O   0  0  0  0  0
   60.3450  -14.7650   -9.8660 Du  0  0  0  0  0
   56.9090  -13.2540   -8.1670 C   0  0  0  0  0
   57.4980  -12.8130   -7.1150 O   0  0  0  0  0
   55.9010  -12.6600   -8.6640 O   0  0  0  0  0
   61.8300  -14.4480  -12.8980 C   0  0  0  0  0
   62.4640  -16.5700  -10.8520 N   0  3  0  0  0
   60.7560  -15.2430  -12.6900 O   0  0  0  0  0
   64.9450  -15.9100  -10.6590 S   0  0  0  0  0
   61.6710  -13.3830  -13.7650 C   0  0  0  0  0
   60.8640  -17.9100   -9.8810 N   0  3  0  0  0
   62.3670  -19.6210   -8.4230 S   0  0  0  0  0
   62.7240  -12.5190  -13.9940 C   0  0  0  0  0
   63.9320  -12.7270  -13.3510 C   0  0  0  0  0
   64.0900  -13.7930  -12.4750 C   0  0  0  0  0
   63.0420  -14.6680  -12.2400 C   0  0  0  0  0
   63.3200  -15.7260  -11.3110 C   0  0  0  0  0
   64.5370  -17.4960   -9.9030 C   0  0  0  0  0
   63.0650  -17.7110  -10.2540 C   0  0  0  0  0
   62.0930  -17.9520   -9.1010 C   0  0  0  0  0
   61.3870  -20.3650   -9.7450 C   0  0  0  0  0
   60.5270  -19.2660  -10.4100 C   0  0  0  0  0
   59.7310  -17.3780   -9.1130 C   0  0  0  0  0
   60.9850  -19.1900  -11.8040 C   0  0  0  0  0
   61.5020  -20.2270  -12.4630 O   0  0  0  0  0
   60.8630  -17.8760  -12.3420 Du  0  0  0  0  0
   60.5550  -16.3710  -11.1250 Fe  0  0  0  0  0
   57.1088  -13.9719  -10.8526 H   0  0  0  0  0
   58.8049  -14.3395  -10.4216 H   0  0  0  0  0
   55.5793  -15.2224   -9.2201 H   0  0  0  0  0
   58.6901  -16.0697   -7.9152 H   0  0  0  0  0
   58.4528  -14.6090   -6.9075 H   0  0  0  0  0
   58.2318  -13.3913   -6.8943 H   0  0  0  0  0
   60.7164  -13.2254  -14.2670 H   0  0  0  0  0
   61.0335  -17.2746  -10.6607 H   0  0  0  0  0
   62.6044  -11.6781  -14.6772 H   0  0  0  0  0
   64.7656  -12.0489  -13.5336 H   0  0  0  0  0
   65.0441  -13.9421  -11.9694 H   0  0  0  0  0
   64.7071  -17.4944   -8.8264 H   0  0  0  0  0
   65.1700  -18.3028  -10.2725 H   0  0  0  0  0
   63.1729  -18.5921  -10.8866 H   0  0  0  0  0
   62.1460  -17.2750   -8.2484 H   0  0  0  0  0
   60.7405  -21.1399   -9.3330 H   0  0  0  0  0
   62.0484  -20.8141  -10.4859 H   0  0  0  0  0
   59.4753  -19.5049  -10.2518 H   0  0  0  0  0
   59.4473  -17.1201   -8.0927 H   0  0  0  0  0
   58.7989  -17.6991   -8.6480 H   0  0  0  0  0
  1  2  2  0  0  0
  3  1  1  0  0  0
  1  4  1  0  0  0
  4  5  1  0  0  0
  5  6  1  0  0  0
  7  5  1  0  0  0
  5 11  1  0  0  0
  8  7  1  0  0  0
  8  9  2  0  0  0
 10  8  1  0  0  0
 11 12  1  0  0  0
 11 13  2  0  0  0
 14 16  1  0  0  0
 14 18  4  0  0  0
 24 14  4  0  0  0
 15 25  2  0  0  0
 15 27  1  0  0  0
 25 17  1  0  0  0
 26 17  1  0  0  0
 18 21  4  0  0  0
 28 19  1  0  0  0
 19 30  1  0  0  0
 19 31  1  0  0  0
 28 20  1  0  0  0
 20 29  1  0  0  0
 22 21  4  0  0  0
 23 22  4  0  0  0
 24 23  4  0  0  0
 25 24  1  0  0  0
 27 26  1  0  0  0
 27 28  1  0  0  0
 29 30  1  0  0  0
 30 32  1  0  0  0
 32 33  2  0  0  0
 32 34  1  0  0  0
 35  3  1  0  0  0
 35 10  1  0  0  0
 35 15  1  0  0  0
 35 16  1  0  0  0
 35 31  1  0  0  0
 35 34  1  0  0  0
  4 36  1  0  0  0
  4 37  1  0  0  0
  6 38  1  0  0  0
  7 39  1  0  0  0
  7 40  1  0  0  0
 12 41  1  0  0  0
 18 42  1  0  0  0
 19 43  1  0  0  0
 21 44  1  0  0  0
 22 45  1  0  0  0
 23 46  1  0  0  0
 26 47  1  0  0  0
 26 48  1  0  0  0
 27 49  1  0  0  0
 28 50  1  0  0  0
 29 51  1  0  0  0
 29 52  1  0  0  0
 30 53  1  0  0  0
 31 54  1  0  0  0
 31 55  1  0  0  0
M  END
$$$$
