3qx8_ligand
  -I-interpret- 

 80 85  0  0  0  0  0  0  0  0999 V2000
   18.9070    3.2180  -21.5640 P   0  0  0  0  0
   18.7930    2.0660  -20.6310 O   0  0  0  0  0
   17.3990    3.6050  -22.0120 O   0  0  0  0  0
   19.8450    2.5750  -22.7780 O   0  0  0  0  0
   20.7840    3.6720  -23.6600 P   0  0  0  0  0
   22.1650    3.9440  -22.8280 O   0  0  0  0  0
   21.1810    2.9790  -24.8780 O   0  0  0  0  0
   20.0380    5.1520  -24.2190 O   0  0  0  0  0
   21.7570    6.5640  -16.4180 N   0  3  0  0  0
   21.9960    6.1530  -15.1430 C   0  0  0  0  0
   23.1920    6.4490  -14.7770 N   0  0  0  0  0
   23.7540    6.1290  -13.4800 C   0  0  0  0  0
   23.8290    7.0750  -15.7970 C   0  0  0  0  0
   25.1460    7.6260  -15.9900 C   0  0  0  0  0
   25.9880    7.5700  -15.1040 O   0  0  0  0  0
   25.4430    8.2060  -17.2040 N   0  0  0  0  0
   24.4940    8.2660  -18.2130 C   0  0  0  0  0
   24.8170    8.8520  -19.4110 N   0  0  0  0  0
   23.2680    7.7570  -18.0450 N   0  0  0  0  0
   22.8980    7.1680  -16.8720 C   0  0  0  0  0
   19.6040    4.3580  -20.6170 O   0  0  0  0  0
   18.5780    4.9700  -19.7760 C   0  0  0  0  0
   19.1930    5.6420  -18.5350 C   0  0  0  0  0
   20.3870    6.4270  -18.5450 O   0  0  0  0  0
   18.2280    6.5000  -17.6540 C   0  0  0  0  0
   17.1410    5.7650  -17.0910 O   0  0  0  0  0
   19.2330    7.0710  -16.6100 C   0  0  0  0  0
   18.8450    6.7680  -15.2620 O   0  0  0  0  0
   20.4940    6.3320  -17.1090 C   0  0  0  0  0
   19.9990    5.3060  -25.7620 P   0  0  0  0  0
   21.4840    4.8760  -26.4930 O   0  0  0  0  0
   18.8800    4.5010  -26.3940 O   0  0  0  0  0
   20.0730    6.9050  -26.1340 O   0  0  0  0  0
   19.6450    7.1640  -27.4930 C   0  0  0  0  0
   19.8350    8.6410  -27.6480 C   0  0  0  0  0
   21.1630    8.7080  -28.4030 O   0  0  0  0  0
   18.9910    9.2920  -28.7080 C   0  0  0  0  0
   18.5290   10.4330  -27.9690 O   0  0  0  0  0
   19.7610    9.7730  -29.9040 C   0  0  0  0  0
   19.3480   11.1070  -30.2490 O   0  0  0  0  0
   21.2460    9.7360  -29.5270 C   0  0  0  0  0
   21.6880    9.4030  -30.9110 N   0  0  0  0  0
   22.0500    8.2050  -31.4520 C   0  0  0  0  0
   22.2810    8.3640  -32.7460 N   0  0  0  0  0
   22.0780    9.6860  -33.0940 C   0  0  0  0  0
   22.1360   10.4660  -34.3280 C   0  0  0  0  0
   22.4080    9.9430  -35.4070 O   0  0  0  0  0
   21.8710   11.8180  -34.2720 N   0  0  0  0  0
   21.5530   12.4150  -33.0690 C   0  0  0  0  0
   21.3120   13.7700  -33.0300 N   0  0  0  0  0
   21.4720   11.7030  -31.9380 N   0  0  0  0  0
   21.7270   10.3620  -31.9140 C   0  0  0  0  0
   17.4274    4.3488  -22.6183 H   0  0  0  0  0
   21.9594    4.4021  -22.0098 H   0  0  0  0  0
   21.2683    5.6399  -14.5143 H   0  0  0  0  0
   23.1610    6.6073  -12.7005 H   0  0  0  0  0
   23.7414    5.0486  -13.3365 H   0  0  0  0  0
   24.7808    6.4914  -13.4310 H   0  0  0  0  0
   25.7496    9.2395  -19.5542 H   0  0  0  0  0
   22.5960    7.8107  -18.8104 H   0  0  0  0  0
   17.8939    4.1896  -19.4428 H   0  0  0  0  0
   18.0612    5.7312  -20.3605 H   0  0  0  0  0
   19.4636    4.6540  -18.1624 H   0  0  0  0  0
   17.6783    7.2643  -18.2033 H   0  0  0  0  0
   16.5950    6.3550  -16.5662 H   0  0  0  0  0
   19.3347    8.1548  -16.5545 H   0  0  0  0  0
   19.4897    7.1372  -14.6540 H   0  0  0  0  0
   20.5306    5.2834  -16.8137 H   0  0  0  0  0
   22.1944    5.3842  -26.0947 H   0  0  0  0  0
   18.6147    6.8558  -27.6709 H   0  0  0  0  0
   20.2148    6.5918  -28.2251 H   0  0  0  0  0
   19.6743    9.0958  -26.6705 H   0  0  0  0  0
   18.2455    8.6164  -29.1274 H   0  0  0  0  0
   17.9590   10.9657  -28.5284 H   0  0  0  0  0
   19.5779    9.1416  -30.7734 H   0  0  0  0  0
   19.8446   11.4068  -31.0139 H   0  0  0  0  0
   21.8967   10.5177  -29.1351 H   0  0  0  0  0
   22.1356    7.2655  -30.9059 H   0  0  0  0  0
   21.3692   14.3230  -33.8852 H   0  0  0  0  0
   21.2130   12.1749  -31.0716 H   0  0  0  0  0
  1  2  2  0  0  0
  1  3  1  0  0  0
  1  4  1  0  0  0
 21  1  1  0  0  0
  4  5  1  0  0  0
  5  6  1  0  0  0
  5  7  2  0  0  0
  5  8  1  0  0  0
  8 30  1  0  0  0
  9 10  4  0  0  0
  9 20  4  0  0  0
 29  9  1  0  0  0
 10 11  4  0  0  0
 11 12  1  0  0  0
 13 11  4  0  0  0
 13 14  1  0  0  0
 20 13  4  0  0  0
 14 15  2  0  0  0
 14 16  1  0  0  0
 17 16  4  0  0  0
 17 18  2  0  0  0
 19 17  1  0  0  0
 20 19  1  0  0  0
 22 21  1  0  0  0
 23 22  1  0  0  0
 24 23  1  0  0  0
 23 25  1  0  0  0
 24 29  1  0  0  0
 25 26  1  0  0  0
 25 27  1  0  0  0
 27 28  1  0  0  0
 27 29  1  0  0  0
 30 31  1  0  0  0
 30 32  2  0  0  0
 30 33  1  0  0  0
 33 34  1  0  0  0
 34 35  1  0  0  0
 35 36  1  0  0  0
 35 37  1  0  0  0
 36 41  1  0  0  0
 37 38  1  0  0  0
 37 39  1  0  0  0
 39 40  1  0  0  0
 39 41  1  0  0  0
 41 42  1  0  0  0
 42 43  4  0  0  0
 42 52  4  0  0  0
 43 44  4  0  0  0
 44 45  4  0  0  0
 45 46  1  0  0  0
 45 52  4  0  0  0
 46 47  2  0  0  0
 46 48  1  0  0  0
 48 49  4  0  0  0
 49 50  2  0  0  0
 49 51  1  0  0  0
 51 52  1  0  0  0
  3 53  1  0  0  0
  6 54  1  0  0  0
 10 55  1  0  0  0
 12 56  1  0  0  0
 12 57  1  0  0  0
 12 58  1  0  0  0
 18 59  1  0  0  0
 19 60  1  0  0  0
 22 61  1  0  0  0
 22 62  1  0  0  0
 23 63  1  0  0  0
 25 64  1  0  0  0
 26 65  1  0  0  0
 27 66  1  0  0  0
 28 67  1  0  0  0
 29 68  1  0  0  0
 31 69  1  0  0  0
 34 70  1  0  0  0
 34 71  1  0  0  0
 35 72  1  0  0  0
 37 73  1  0  0  0
 38 74  1  0  0  0
 39 75  1  0  0  0
 40 76  1  0  0  0
 41 77  1  0  0  0
 43 78  1  0  0  0
 50 79  1  0  0  0
 51 80  1  0  0  0
M  END
$$$$
