3vjs_ligand
  -I-interpret- 

 63 81  0  0  0  0  0  0  0  0999 V2000
   13.1790    5.5700   25.6200 B   0  0  0  0  0
   13.4800    2.7370   25.9090 C   0  0  0  0  0
    9.8570   -2.1580   28.5640 O   0  0  0  0  0
   13.4980    4.8400   24.0760 B   0  0  0  0  0
   12.8540    1.3600   26.2400 C   0  0  0  0  0
   15.3460    7.3480   22.1140 O   0  0  0  0  0
   15.1040    4.1660   24.0250 B   0  0  0  0  0
   11.4960    1.5020   26.9320 C   0  0  0  0  0
   16.7180    8.2440   19.7390 O   0  0  0  0  0
   15.8080    4.4180   25.6240 B   0  0  0  0  0
   11.0470    0.1100   27.3970 C   0  0  0  0  0
   14.5200    4.2630   18.5510 O   0  0  0  0  0
   14.6130    5.2920   26.6150 B   0  0  0  0  0
    9.5910    0.1540   27.8720 C   0  0  0  0  0
   12.4680    4.0080   25.1760 B   0  0  0  0  0
    8.6460   -1.8090   26.5570 C   0  0  0  0  0
   13.6680    3.1310   24.1890 B   0  0  0  0  0
    7.7100   -1.1240   28.8740 C   0  0  0  0  0
   15.1170    2.8380   25.1830 B   0  0  0  0  0
    7.0990   -2.4940   29.2070 C   0  0  0  0  0
   14.8110    3.5440   26.8000 B   0  0  0  0  0
    8.9600   -1.2470   27.9620 C   0  0  0  0  0
   13.1720    4.2690   26.7970 B   0  0  0  0  0
    7.6400   -0.9520   25.7810 C   0  0  0  0  0
   14.7770    5.6090   24.9290 C   0  0  0  0  0
   15.2610    6.9970   24.4470 C   0  0  0  0  0
   14.4770    7.4290   23.2170 C   0  0  0  0  0
   14.7090    7.9980   21.0500 C   0  0  0  0  0
   15.4310    7.6740   19.7520 C   0  0  0  0  0
   15.5670    6.1670   19.5520 C   0  0  0  0  0
   14.3460    5.6330   18.8330 C   0  0  0  0  0
    9.4471   -3.0248   28.6116 H   0  0  0  0  0
   13.5277    0.8315   26.9144 H   0  0  0  0  0
   12.7066    0.8181   25.3058 H   0  0  0  0  0
   10.7647    1.9200   26.2402 H   0  0  0  0  0
   11.5792    2.1738   27.7864 H   0  0  0  0  0
   17.1545    8.0270   18.9120 H   0  0  0  0  0
   11.6817   -0.2120   28.2226 H   0  0  0  0  0
   11.1292   -0.5879   26.5638 H   0  0  0  0  0
   13.7433    3.9301   18.0954 H   0  0  0  0  0
    9.0183    0.7358   27.1498 H   0  0  0  0  0
    9.5747    0.5956   28.8684 H   0  0  0  0  0
    8.2094   -2.7995   26.6853 H   0  0  0  0  0
    9.5766   -1.8244   25.9897 H   0  0  0  0  0
    8.0161   -0.6526   29.8079 H   0  0  0  0  0
    6.9596   -0.5372   28.3443 H   0  0  0  0  0
    6.7987   -2.9905   28.2842 H   0  0  0  0  0
    7.8389   -3.1041   29.7252 H   0  0  0  0  0
    6.2275   -2.3559   29.8470 H   0  0  0  0  0
    6.7030   -0.9023   26.3356 H   0  0  0  0  0
    8.0424    0.0530   25.6542 H   0  0  0  0  0
    7.4616   -1.3994   24.8032 H   0  0  0  0  0
   16.3192    6.9372   24.1927 H   0  0  0  0  0
   15.1055    7.7252   25.2430 H   0  0  0  0  0
   13.6115    6.7831   23.0695 H   0  0  0  0  0
   14.1073    8.4472   23.3379 H   0  0  0  0  0
   14.7295    9.0748   21.2178 H   0  0  0  0  0
   13.6750    7.6595   20.9845 H   0  0  0  0  0
   14.8320    8.0926   18.9432 H   0  0  0  0  0
   15.6545    5.6809   20.5236 H   0  0  0  0  0
   16.4555    5.9613   18.9551 H   0  0  0  0  0
   13.4689    5.7621   19.4671 H   0  0  0  0  0
   14.2097    6.1789   17.8995 H   0  0  0  0  0
  1 13  1  0  0  0
  1 23  1  0  0  0
 25  1  1  0  0  0
  2  5  1  0  0  0
 17  2  1  0  0  0
 21  2  1  0  0  0
 22  3  1  0  0  0
  4 15  1  0  0  0
  4 17  1  0  0  0
 25  4  1  0  0  0
  5  8  1  0  0  0
  6 27  1  0  0  0
 28  6  1  0  0  0
 17  7  1  0  0  0
 19  7  1  0  0  0
  8 11  1  0  0  0
 29  9  1  0  0  0
 10 19  1  0  0  0
 10 21  1  0  0  0
 25 10  1  0  0  0
 11 14  1  0  0  0
 31 12  1  0  0  0
 23 13  1  0  0  0
 14 22  1  0  0  0
 15 23  1  0  0  0
 22 16  1  0  0  0
 16 24  1  0  0  0
 18 20  1  0  0  0
 22 18  1  0  0  0
 21 19  1  0  0  0
 26 25  1  0  0  0
 27 26  1  0  0  0
 29 28  1  0  0  0
 30 29  1  0  0  0
 30 31  1  0  0  0
 25  7  1  0  0  0
 25 13  1  0  0  0
 15  1  1  0  0  0
 15  2  1  0  0  0
 23  2  1  0  0  0
 23 21  1  0  0  0
 19  2  1  0  0  0
 10 13  1  0  0  0
 10  7  1  0  0  0
  4  7  1  0  0  0
  4  1  1  0  0  0
 19 17  1  0  0  0
 17 15  1  0  0  0
 21 13  1  0  0  0
  3 32  1  0  0  0
  5 33  1  0  0  0
  5 34  1  0  0  0
  8 35  1  0  0  0
  8 36  1  0  0  0
  9 37  1  0  0  0
 11 38  1  0  0  0
 11 39  1  0  0  0
 12 40  1  0  0  0
 14 41  1  0  0  0
 14 42  1  0  0  0
 16 43  1  0  0  0
 16 44  1  0  0  0
 18 45  1  0  0  0
 18 46  1  0  0  0
 20 47  1  0  0  0
 20 48  1  0  0  0
 20 49  1  0  0  0
 24 50  1  0  0  0
 24 51  1  0  0  0
 24 52  1  0  0  0
 26 53  1  0  0  0
 26 54  1  0  0  0
 27 55  1  0  0  0
 27 56  1  0  0  0
 28 57  1  0  0  0
 28 58  1  0  0  0
 29 59  1  0  0  0
 30 60  1  0  0  0
 30 61  1  0  0  0
 31 62  1  0  0  0
 31 63  1  0  0  0
M  END
$$$$
