3zju_ligand
  -I-interpret- 

 59 64  0  0  0  0  0  0  0  0999 V2000
   28.6260   27.8430   33.2230 B   0  0  0  0  0
   22.0150   27.5550   32.4090 P   0  0  0  0  0
   24.2560   34.3610   29.2690 N   0  0  0  0  0
   29.5940   28.5610   34.1650 O   0  0  0  0  0
   24.8360   33.3630   28.5630 C   0  0  0  0  0
   25.3400   32.2810   29.1700 N   0  0  0  0  0
   25.2690   32.1450   30.5270 C   0  0  0  0  0
   24.6410   33.1360   31.2530 C   0  0  0  0  0
   24.1430   34.2720   30.6040 C   0  0  0  0  0
   23.5220   35.2810   31.2830 N   0  0  0  0  0
   24.6950   32.7620   32.5300 N   0  0  0  0  0
   25.3340   31.5630   32.6170 C   0  0  0  0  0
   25.6630   31.1740   31.3890 N   0  0  0  0  0
   26.4690   29.9690   31.0870 C   0  0  0  0  0
   30.8820   27.9160   34.2490 C   0  0  0  0  0
   30.6880   26.6960   33.3710 C   0  0  0  0  0
   29.4340   26.6450   32.7970 C   0  0  0  0  0
   31.6490   25.6950   33.1720 C   0  0  0  0  0
   31.3220   24.5960   32.3660 C   0  0  0  0  0
   30.0500   24.5230   31.7780 C   0  0  0  0  0
   29.0820   25.5370   32.0040 C   0  0  0  0  0
   27.8600   25.3830   31.3970 O   0  0  0  0  0
   27.7580   24.3310   30.4170 C   0  0  0  0  0
   26.3120   23.9850   30.1000 C   0  0  0  0  0
   27.1780   29.5810   32.3790 C   0  0  0  0  0
   28.3950   28.9120   32.1380 O   0  0  0  0  0
   25.6900   25.0520   29.2060 C   0  0  0  0  0
   24.2930   25.1170   29.5060 O   0  0  0  0  0
   26.3920   28.4430   32.9640 C   0  0  0  0  0
   27.3630   27.6260   33.6070 O   0  0  0  0  0
   25.8750   27.8030   31.6790 C   0  0  0  0  0
   25.7070   28.8490   30.7060 O   0  0  0  0  0
   24.5430   27.0990   31.8700 C   0  0  0  0  0
   23.5290   28.0490   32.1870 O   0  0  0  0  0
   21.7590   26.1730   31.8830 O   0  0  0  0  0
   21.6860   27.8760   33.8400 O   0  5  0  0  0
   21.4236   28.1502   31.8505 H   0  0  0  0  0
   24.8939   33.4410   27.4834 H   0  0  0  0  0
   23.4262   35.2298   32.3073 H   0  0  0  0  0
   23.1494   36.0933   30.7709 H   0  0  0  0  0
   25.5404   31.0159   33.5357 H   0  0  0  0  0
   27.1950   30.2049   30.2950 H   0  0  0  0  0
   31.1172   27.6286   35.2844 H   0  0  0  0  0
   31.6793   28.5654   33.8585 H   0  0  0  0  0
   32.6272   25.7696   33.6331 H   0  0  0  0  0
   32.0468   23.8077   32.1980 H   0  0  0  0  0
   29.8028   23.6805   31.1422 H   0  0  0  0  0
   28.2606   23.4333   30.8062 H   0  0  0  0  0
   28.2557   24.6580   29.4921 H   0  0  0  0  0
   25.7412   23.9214   31.0381 H   0  0  0  0  0
   26.2771   23.0147   29.5831 H   0  0  0  0  0
   27.2902   30.4438   33.0520 H   0  0  0  0  0
   25.8331   24.7838   28.1489 H   0  0  0  0  0
   26.1605   26.0264   29.4041 H   0  0  0  0  0
   23.8833   25.7771   28.9594 H   0  0  0  0  0
   25.5868   28.7463   33.6493 H   0  0  0  0  0
   26.6147   27.0728   31.3189 H   0  0  0  0  0
   24.6300   26.3719   32.6908 H   0  0  0  0  0
   24.2725   26.5739   30.9421 H   0  0  0  0  0
  1  4  1  0  0  0
  1 17  1  0  0  0
 30  1  1  0  0  0
 34  2  1  0  0  0
  2 35  2  0  0  0
  2 36  1  0  0  0
  5  3  4  0  0  0
  9  3  4  0  0  0
  4 15  1  0  0  0
  6  5  4  0  0  0
  7  6  4  0  0  0
  7  8  4  0  0  0
 13  7  1  0  0  0
  8  9  4  0  0  0
 11  8  1  0  0  0
  9 10  1  0  0  0
 12 11  2  0  0  0
 13 12  1  0  0  0
 14 13  1  0  0  0
 14 25  1  0  0  0
 32 14  1  0  0  0
 16 15  1  0  0  0
 17 16  4  0  0  0
 16 18  4  0  0  0
 17 21  4  0  0  0
 18 19  4  0  0  0
 20 19  4  0  0  0
 21 20  4  0  0  0
 21 22  1  0  0  0
 22 23  1  0  0  0
 23 24  1  0  0  0
 24 27  1  0  0  0
 25 26  1  0  0  0
 29 25  1  0  0  0
 27 28  1  0  0  0
 29 30  1  0  0  0
 31 29  1  0  0  0
 31 32  1  0  0  0
 33 31  1  0  0  0
 33 34  1  0  0  0
  2 37  1  0  0  0
  1 26  1  0  0  0
  5 38  1  0  0  0
 10 39  1  0  0  0
 10 40  1  0  0  0
 12 41  1  0  0  0
 14 42  1  0  0  0
 15 43  1  0  0  0
 15 44  1  0  0  0
 18 45  1  0  0  0
 19 46  1  0  0  0
 20 47  1  0  0  0
 23 48  1  0  0  0
 23 49  1  0  0  0
 24 50  1  0  0  0
 24 51  1  0  0  0
 25 52  1  0  0  0
 27 53  1  0  0  0
 27 54  1  0  0  0
 28 55  1  0  0  0
 29 56  1  0  0  0
 31 57  1  0  0  0
 33 58  1  0  0  0
 33 59  1  0  0  0
M  END
$$$$
