3zjv_ligand
  -I-interpret- 

 65 70  0  0  0  0  0  0  0  0999 V2000
   52.5130  -19.4390   32.7400 O   0  5  0  0  0
   53.6970  -26.6350   32.8890 B   0  0  0  0  0
   51.6520  -20.0430   31.6710 P   0  0  0  0  0
   57.0390  -22.0300   26.3200 N   0  0  0  0  0
   54.5700  -27.5530   33.5350 O   0  0  0  0  0
   55.9640  -22.8450   26.2920 C   0  0  0  0  0
   55.4450  -23.4000   27.3980 N   0  0  0  0  0
   56.0370  -23.1260   28.5750 C   0  0  0  0  0
   57.1260  -22.2690   28.6390 C   0  0  0  0  0
   57.6370  -21.7220   27.4830 C   0  0  0  0  0
   58.7030  -20.8850   27.5340 N   0  0  0  0  0
   57.4970  -22.1590   29.9240 N   0  0  0  0  0
   56.6530  -22.9360   30.6300 C   0  0  0  0  0
   55.7630  -23.5270   29.8100 N   0  0  0  0  0
   54.6740  -24.4820   30.1380 C   0  0  0  0  0
   53.9910  -28.8400   33.7900 C   0  0  0  0  0
   52.5840  -28.6410   33.4160 C   0  0  0  0  0
   52.3980  -27.3360   32.8260 C   0  0  0  0  0
   51.5460  -29.5510   33.5280 C   0  0  0  0  0
   50.2840  -29.1690   33.0910 C   0  0  0  0  0
   51.1250  -26.9810   32.3970 C   0  0  0  0  0
   54.5870  -29.8830   32.8600 C   0  0  0  0  0
   54.6070  -29.4090   31.4690 N   0  3  0  0  0
   50.8680  -25.7550   31.8410 O   0  0  0  0  0
   50.1400  -19.8390   31.7360 O   0  5  0  0  0
   54.9430  -25.2440   31.4160 C   0  0  0  0  0
   54.1800  -26.4670   31.5610 O   0  0  0  0  0
   49.5120  -25.3010   31.7520 C   0  0  0  0  0
   49.4530  -24.0050   30.9730 C   0  0  0  0  0
   48.8370  -24.2660   29.6090 C   0  0  0  0  0
   48.0220  -23.1440   29.2670 O   0  0  0  0  0
   54.3510  -24.3650   32.4670 C   0  0  0  0  0
   53.8370  -25.3000   33.3860 O   0  0  0  0  0
   53.2540  -23.5950   31.7510 C   0  0  0  0  0
   53.4260  -23.8390   30.3420 O   0  0  0  0  0
   53.2530  -22.1030   31.9740 C   0  0  0  0  0
   52.0350  -21.5680   31.4250 O   0  0  0  0  0
   52.0576  -19.3255   30.4297 O   0  0  0  0  0
   50.0764  -27.8276   32.5267 C   0  0  0  0  0
   55.5003  -23.0604   25.3362 H   0  0  0  0  0
   59.1427  -20.6657   28.4392 H   0  0  0  0  0
   59.0728  -20.4687   26.6675 H   0  0  0  0  0
   56.6857  -23.0676   31.7105 H   0  0  0  0  0
   54.5842  -25.1920   29.3026 H   0  0  0  0  0
   54.1066  -29.1416   34.8415 H   0  0  0  0  0
   51.7142  -30.5368   33.9463 H   0  0  0  0  0
   49.4522  -29.8601   33.1661 H   0  0  0  0  0
   53.9834  -30.8008   32.9171 H   0  0  0  0  0
   55.6169  -30.1010   33.1791 H   0  0  0  0  0
   55.0067  -30.1205   30.8773 H   0  0  0  0  0
   55.1625  -28.5701   31.4078 H   0  0  0  0  0
   53.6656  -29.2114   31.1678 H   0  0  0  0  0
   56.0194  -25.4276   31.5491 H   0  0  0  0  0
   49.1153  -25.1362   32.7646 H   0  0  0  0  0
   48.9053  -26.0623   31.2398 H   0  0  0  0  0
   50.4702  -23.6059   30.8464 H   0  0  0  0  0
   48.8382  -23.2752   31.5201 H   0  0  0  0  0
   48.2209  -25.1765   29.6464 H   0  0  0  0  0
   49.6318  -24.3916   28.8590 H   0  0  0  0  0
   47.6266  -23.2877   28.4152 H   0  0  0  0  0
   55.0797  -23.6867   32.9349 H   0  0  0  0  0
   52.2821  -23.9896   32.0820 H   0  0  0  0  0
   54.1193  -21.6503   31.4695 H   0  0  0  0  0
   53.3022  -21.8873   33.0515 H   0  0  0  0  0
   49.0858  -27.5168   32.2151 H   0  0  0  0  0
  3  1  1  0  0  0
  2  5  1  0  0  0
  2 27  1  0  0  0
 33  2  1  0  0  0
  3 25  1  0  0  0
 37  3  1  0  0  0
  6  4  4  0  0  0
 10  4  4  0  0  0
  5 16  1  0  0  0
  7  6  4  0  0  0
  8  7  4  0  0  0
  8  9  4  0  0  0
 14  8  1  0  0  0
  9 10  4  0  0  0
 12  9  1  0  0  0
 10 11  1  0  0  0
 13 12  2  0  0  0
 14 13  1  0  0  0
 15 14  1  0  0  0
 15 26  1  0  0  0
 35 15  1  0  0  0
 16 17  1  0  0  0
 16 22  1  0  0  0
 17 18  4  0  0  0
 17 19  4  0  0  0
 18 21  4  0  0  0
 19 20  4  0  0  0
 21 24  1  0  0  0
 22 23  1  0  0  0
 24 28  1  0  0  0
 26 27  1  0  0  0
 32 26  1  0  0  0
 28 29  1  0  0  0
 29 30  1  0  0  0
 30 31  1  0  0  0
 32 33  1  0  0  0
 34 32  1  0  0  0
 34 35  1  0  0  0
 36 34  1  0  0  0
 36 37  1  0  0  0
  3 38  2  0  0  0
 20 39  4  0  0  0
 21 39  4  0  0  0
 18  2  1  0  0  0
  6 40  1  0  0  0
 11 41  1  0  0  0
 11 42  1  0  0  0
 13 43  1  0  0  0
 15 44  1  0  0  0
 16 45  1  0  0  0
 19 46  1  0  0  0
 20 47  1  0  0  0
 22 48  1  0  0  0
 22 49  1  0  0  0
 23 50  1  0  0  0
 23 51  1  0  0  0
 23 52  1  0  0  0
 26 53  1  0  0  0
 28 54  1  0  0  0
 28 55  1  0  0  0
 29 56  1  0  0  0
 29 57  1  0  0  0
 30 58  1  0  0  0
 30 59  1  0  0  0
 31 60  1  0  0  0
 32 61  1  0  0  0
 34 62  1  0  0  0
 36 63  1  0  0  0
 36 64  1  0  0  0
 39 65  1  0  0  0
M  END
$$$$
