3zy5_ligand
  -I-interpret- 

 62 65  0  0  0  0  0  0  0  0999 V2000
  -12.8840  -27.0170   16.5360 O   0  0  0  0  0
  -11.3820  -26.8570   16.4820 P   0  0  0  0  0
  -10.8290  -26.2130   15.2370 O   0  0  0  0  0
  -10.9670  -26.0100   17.8130 O   0  0  0  0  0
  -10.6930  -28.2680   16.7470 O   0  0  0  0  0
   -9.5570  -25.8240   18.5830 P   0  0  0  0  0
  -11.1800  -29.0320   17.8500 C   0  0  0  0  0
  -12.0310  -30.1440   17.2410 C   0  0  0  0  0
  -11.9420  -31.3090   18.0720 O   0  0  0  0  0
  -13.5070  -29.7880   17.1580 C   0  0  0  0  0
  -13.2460  -31.7990   18.3930 C   0  0  0  0  0
  -13.8750  -29.1670   15.9100 O   0  0  0  0  0
  -14.1770  -31.1320   17.3930 C   0  0  0  0  0
  -14.2360  -31.9100   16.1920 O   0  0  0  0  0
  -13.6950  -31.3030   19.7190 N   0  0  0  0  0
  -13.1130  -30.4130   20.5470 C   0  0  0  0  0
  -14.8600  -31.6670   20.2490 C   0  0  0  0  0
  -13.9190  -30.2250   21.6200 N   0  0  0  0  0
  -15.0050  -31.0100   21.4590 C   0  0  0  0  0
  -16.1530  -31.2560   22.1990 C   0  0  0  0  0
  -16.3030  -30.6720   23.2960 O   0  0  0  0  0
  -17.0860  -32.1070   21.7070 N   0  0  0  0  0
  -16.9070  -32.7240   20.5190 C   0  0  0  0  0
  -17.7980  -33.5920   19.9970 N   0  0  0  0  0
  -15.8090  -32.5100   19.7930 N   0  0  0  0  0
   -7.3460  -26.1080   17.1350 C   0  0  0  0  0
   -7.5940  -26.0920   15.6150 C   0  0  0  0  0
   -8.5010  -26.6730   17.7310 O   0  0  0  0  0
   -6.3070  -27.0130   17.4950 O   0  0  0  0  0
   -6.3260  -25.8400   14.8040 C   0  0  0  0  0
   -8.5360  -25.0690   15.3040 O   0  0  0  0  0
   -5.2090  -26.7670   15.2890 C   0  0  0  0  0
   -6.6000  -26.0380   13.3910 O   0  0  0  0  0
   -5.0560  -26.8000   16.8160 C   0  0  0  0  0
   -5.4950  -28.0970   14.8380 O   0  0  0  0  0
   -4.1130  -27.9230   17.2270 C   0  0  0  0  0
   -9.2630  -24.3390   18.5820 O   0  0  0  0  0
   -9.6500  -26.4880   19.9290 O   0  0  0  0  0
  -13.1306  -27.4347   17.3644 H   0  0  0  0  0
  -11.7632  -28.4150   18.5335 H   0  0  0  0  0
  -10.3612  -29.4387   18.4435 H   0  0  0  0  0
  -11.6480  -30.3074   16.2337 H   0  0  0  0  0
  -13.8095  -29.0306   17.8811 H   0  0  0  0  0
  -13.2436  -32.8889   18.3827 H   0  0  0  0  0
  -14.8139  -28.9669   15.9180 H   0  0  0  0  0
  -15.2073  -31.0325   17.7346 H   0  0  0  0  0
  -14.6637  -32.7494   16.3765 H   0  0  0  0  0
  -12.1526  -29.9250   20.3810 H   0  0  0  0  0
  -18.6557  -33.8094   20.5045 H   0  0  0  0  0
  -15.6874  -32.9817   18.8969 H   0  0  0  0  0
   -7.1015  -25.0923   17.4461 H   0  0  0  0  0
   -7.9685  -27.0798   15.3465 H   0  0  0  0  0
   -5.9973  -24.8104   14.9450 H   0  0  0  0  0
   -8.6925  -25.0568   14.3569 H   0  0  0  0  0
   -4.2755  -26.3802   14.8804 H   0  0  0  0  0
   -5.7996  -25.8783   12.8855 H   0  0  0  0  0
   -4.6613  -25.8250   17.1017 H   0  0  0  0  0
   -4.8015  -28.6906   15.1353 H   0  0  0  0  0
   -3.9691  -27.8979   18.3072 H   0  0  0  0  0
   -4.5443  -28.8817   16.9388 H   0  0  0  0  0
   -3.1530  -27.7904   16.7281 H   0  0  0  0  0
   -9.2261  -24.0219   17.6767 H   0  0  0  0  0
  2  1  1  0  0  0
  2  3  2  0  0  0
  4  2  1  0  0  0
  2  5  1  0  0  0
  6  4  1  0  0  0
  5  7  1  0  0  0
 28  6  1  0  0  0
  6 37  1  0  0  0
  6 38  2  0  0  0
  7  8  1  0  0  0
  8  9  1  0  0  0
  8 10  1  0  0  0
  9 11  1  0  0  0
 10 12  1  0  0  0
 10 13  1  0  0  0
 13 11  1  0  0  0
 11 15  1  0  0  0
 13 14  1  0  0  0
 15 16  4  0  0  0
 15 17  4  0  0  0
 16 18  4  0  0  0
 17 19  4  0  0  0
 17 25  1  0  0  0
 19 18  4  0  0  0
 19 20  1  0  0  0
 20 21  2  0  0  0
 20 22  1  0  0  0
 23 22  4  0  0  0
 23 24  2  0  0  0
 25 23  1  0  0  0
 26 27  1  0  0  0
 26 28  1  0  0  0
 26 29  1  0  0  0
 27 30  1  0  0  0
 27 31  1  0  0  0
 29 34  1  0  0  0
 30 32  1  0  0  0
 30 33  1  0  0  0
 32 34  1  0  0  0
 32 35  1  0  0  0
 34 36  1  0  0  0
  1 39  1  0  0  0
  7 40  1  0  0  0
  7 41  1  0  0  0
  8 42  1  0  0  0
 10 43  1  0  0  0
 11 44  1  0  0  0
 12 45  1  0  0  0
 13 46  1  0  0  0
 14 47  1  0  0  0
 16 48  1  0  0  0
 24 49  1  0  0  0
 25 50  1  0  0  0
 26 51  1  0  0  0
 27 52  1  0  0  0
 30 53  1  0  0  0
 31 54  1  0  0  0
 32 55  1  0  0  0
 33 56  1  0  0  0
 34 57  1  0  0  0
 35 58  1  0  0  0
 36 59  1  0  0  0
 36 60  1  0  0  0
 36 61  1  0  0  0
 37 62  1  0  0  0
M  END
$$$$
