4dcv_ligand
  -I-interpret- 

 49 51  0  0  0  0  0  0  0  0999 V2000
  -14.4520   -6.9930  -32.8920 P   0  0  0  0  0
  -13.7440   -6.6470  -34.1920 O   0  0  0  0  0
  -13.5410   -7.5580  -31.8150 O   0  0  0  0  0
  -15.3480   -5.8940  -32.3530 O   0  0  0  0  0
  -15.5870   -8.3570  -33.3090 C   0  0  0  0  0
  -14.7540   -9.9460  -33.6170 P   0  0  0  0  0
  -13.5470   -9.6980  -34.4780 O   0  0  0  0  0
  -14.5950  -10.7120  -32.3130 O   0  0  0  0  0
  -15.7750  -10.8190  -34.4910 O   0  0  0  0  0
  -17.0930  -11.4150  -33.7770 P   0  0  0  0  0
  -16.7030  -12.6250  -32.9650 O   0  0  0  0  0
  -17.7730  -10.2480  -33.1140 O   0  0  0  0  0
  -17.9400  -11.8430  -35.0700 O   0  0  0  0  0
  -18.2080  -10.8740  -36.0880 C   0  0  0  0  0
  -19.3340  -11.3690  -36.9860 C   0  0  0  0  0
  -18.8900  -12.4730  -37.7900 O   0  0  0  0  0
  -20.5290  -11.8840  -36.2190 C   0  0  0  0  0
  -21.6780  -11.5210  -36.9930 O   0  0  0  0  0
  -20.3650  -13.3930  -36.2550 C   0  0  0  0  0
  -21.6200  -14.0620  -36.1760 O   0  0  0  0  0
  -19.7070  -13.6330  -37.6010 C   0  0  0  0  0
  -18.8490  -14.8340  -37.5840 N   0  0  0  0  0
  -17.9010  -15.0980  -36.6600 C   0  0  0  0  0
  -17.2730  -16.2720  -36.9190 N   0  0  0  0  0
  -17.8200  -16.7820  -38.0400 C   0  0  0  0  0
  -17.6230  -17.9970  -38.8770 C   0  0  0  0  0
  -16.7750  -18.8650  -38.5930 O   0  0  0  0  0
  -18.3810  -18.1600  -39.9630 N   0  0  0  0  0
  -19.3130  -17.2600  -40.3230 C   0  0  0  0  0
  -20.0200  -17.5270  -41.4500 N   0  0  0  0  0
  -19.5520  -16.1210  -39.6050 N   0  0  0  0  0
  -18.8540  -15.8260  -38.4810 C   0  0  0  0  0
  -13.1997   -7.3889  -34.4659 H   0  0  0  0  0
  -12.9910   -8.2484  -32.1925 H   0  0  0  0  0
  -16.1026   -8.0789  -34.2282 H   0  0  0  0  0
  -16.2489   -8.4993  -32.4547 H   0  0  0  0  0
  -15.4491  -10.7874  -31.8813 H   0  0  0  0  0
  -16.2833  -13.2714  -33.5374 H   0  0  0  0  0
  -17.3098  -10.7214  -36.6864 H   0  0  0  0  0
  -18.5045   -9.9341  -35.6224 H   0  0  0  0  0
  -19.6187  -10.5010  -37.5807 H   0  0  0  0  0
  -20.6210  -11.5047  -35.2013 H   0  0  0  0  0
  -22.4718  -11.8265  -36.5479 H   0  0  0  0  0
  -19.7865  -13.7742  -35.4135 H   0  0  0  0  0
  -21.4776  -15.0110  -36.2014 H   0  0  0  0  0
  -20.4444  -13.7920  -38.3878 H   0  0  0  0  0
  -17.6698  -14.4506  -35.8141 H   0  0  0  0  0
  -19.8325  -18.3781  -41.9800 H   0  0  0  0  0
  -20.2750  -15.4760  -39.9238 H   0  0  0  0  0
  1  2  1  0  0  0
  1  3  1  0  0  0
  1  4  2  0  0  0
  1  5  1  0  0  0
  5  6  1  0  0  0
  6  7  2  0  0  0
  6  8  1  0  0  0
  6  9  1  0  0  0
  9 10  1  0  0  0
 10 11  1  0  0  0
 10 12  2  0  0  0
 10 13  1  0  0  0
 13 14  1  0  0  0
 14 15  1  0  0  0
 15 16  1  0  0  0
 15 17  1  0  0  0
 16 21  1  0  0  0
 17 18  1  0  0  0
 17 19  1  0  0  0
 19 20  1  0  0  0
 19 21  1  0  0  0
 21 22  1  0  0  0
 22 23  4  0  0  0
 22 32  4  0  0  0
 23 24  4  0  0  0
 24 25  4  0  0  0
 25 26  1  0  0  0
 25 32  4  0  0  0
 26 27  2  0  0  0
 26 28  1  0  0  0
 28 29  4  0  0  0
 29 30  2  0  0  0
 29 31  1  0  0  0
 31 32  1  0  0  0
  2 33  1  0  0  0
  3 34  1  0  0  0
  5 35  1  0  0  0
  5 36  1  0  0  0
  8 37  1  0  0  0
 11 38  1  0  0  0
 14 39  1  0  0  0
 14 40  1  0  0  0
 15 41  1  0  0  0
 17 42  1  0  0  0
 18 43  1  0  0  0
 19 44  1  0  0  0
 20 45  1  0  0  0
 21 46  1  0  0  0
 23 47  1  0  0  0
 30 48  1  0  0  0
 31 49  1  0  0  0
M  END
$$$$
