4e67_ligand
  -I-interpret- 

111113  0  0  0  0  0  0  0  0999 V2000
  -10.6410   26.7510   -7.1080 C   0  0  0  0  0
  -11.0560   27.0370   -8.2330 O   0  0  0  0  0
  -11.4390   25.8070   -6.2090 C   0  0  0  0  0
  -12.5560   25.1060   -6.9900 C   0  0  0  0  0
  -13.5770   24.4320   -6.1120 C   0  0  0  0  0
  -14.8590   24.9530   -5.9900 C   0  0  0  0  0
  -15.8040   24.3360   -5.1790 C   0  0  0  0  0
  -15.4730   23.1750   -4.4840 C   0  0  0  0  0
  -14.1940   22.6420   -4.5980 C   0  0  0  0  0
  -13.2540   23.2720   -5.4090 C   0  0  0  0  0
   -9.4850   27.2370   -6.6100 N   0  0  0  0  0
   -8.6210   28.1920   -7.3230 C   0  0  0  0  0
   -8.3150   27.7750   -8.7640 C   0  0  0  0  0
   -8.1120   28.6370   -9.6200 O   0  0  0  0  0
   -7.3500   28.2180   -6.4680 C   0  0  0  0  0
   -7.8550   27.9550   -5.0810 C   0  0  0  0  0
   -8.9720   26.9470   -5.2560 C   0  0  0  0  0
   -8.2720   26.4680   -9.0200 N   0  0  0  0  0
   -8.3690   25.9510  -10.3860 C   0  0  0  0  0
   -9.0010   24.5620  -10.4590 C   0  0  0  0  0
   -8.9920   23.8060   -9.4890 O   0  0  0  0  0
   -7.0400   26.0190  -11.1470 C   0  0  0  0  0
   -5.8030   25.2400  -10.7250 C   0  0  0  0  0
   -5.0210   24.9620  -11.9880 C   0  0  0  0  0
   -4.9560   26.0460   -9.7480 C   0  0  0  0  0
   -9.5580   24.2540  -11.6240 N   0  0  0  0  0
  -10.4250   23.1010  -11.8150 C   0  0  0  0  0
  -10.3760   22.6820  -13.2790 C   0  0  0  0  0
   -9.8240   23.3920  -14.1160 O   0  0  0  0  0
  -11.8670   23.4480  -11.4070 C   0  0  0  0  0
  -12.3730   24.7240  -12.0090 C   0  0  0  0  0
  -12.8320   24.8040  -13.3080 N   0  0  0  0  0
  -12.4820   25.9720  -11.4960 C   0  0  0  0  0
  -13.1970   26.0460  -13.5690 C   0  0  0  0  0
  -12.9980   26.7750  -12.4850 N   0  0  0  0  0
  -10.9500   21.5210  -13.5790 N   0  0  0  0  0
  -11.0550   21.0490  -14.9530 C   0  0  0  0  0
  -12.0610   21.9070  -15.7340 C   0  0  0  0  0
  -12.6750   22.8210  -15.1770 O   0  0  0  0  0
  -11.4540   19.5730  -14.9710 C   0  0  0  0  0
  -12.6570   19.3690  -14.2430 O   0  0  0  0  0
  -12.2180   21.6070  -17.0190 N   0  0  0  0  0
  -13.0820   22.3760  -17.9180 C   0  0  0  0  0
  -13.0110   21.7590  -19.3170 C   0  0  0  0  0
  -13.8110   22.5620  -20.3420 C   0  0  0  0  0
  -11.6440   21.7380  -19.7270 O   0  0  0  0  0
  -10.7750   20.3890  -19.8850 P   0  0  0  0  0
  -11.5000   19.6020  -20.9460 O   0  0  0  0  0
  -10.7690   19.7540  -18.5080 O   0  0  0  0  0
   -9.4250   20.8890  -20.3350 O   0  0  0  0  0
  -14.5040   22.4860  -17.4240 C   0  0  0  0  0
  -15.1310   21.4810  -17.0670 O   0  0  0  0  0
  -15.0140   23.7170  -17.3990 N   0  0  0  0  0
  -16.3760   24.0050  -16.9370 C   0  0  0  0  0
  -17.4110   23.4850  -17.9210 C   0  0  0  0  0
  -17.1120   23.2970  -19.0950 O   0  0  0  0  0
  -16.5650   25.5110  -16.7150 C   0  0  0  0  0
  -18.5740   23.1270  -17.5830 N   0  0  0  0  0
  -11.8902   26.3907   -5.4066 H   0  0  0  0  0
  -10.7625   25.0486   -5.8148 H   0  0  0  0  0
  -12.0907   24.3329   -7.6015 H   0  0  0  0  0
  -13.0767   25.8684   -7.5694 H   0  0  0  0  0
  -15.1270   25.8569   -6.5371 H   0  0  0  0  0
  -16.8038   24.7604   -5.0868 H   0  0  0  0  0
  -16.2147   22.6858   -3.8526 H   0  0  0  0  0
  -13.9284   21.7350   -4.0549 H   0  0  0  0  0
  -12.2516   22.8526   -5.4956 H   0  0  0  0  0
   -9.0978   29.1661   -7.4321 H   0  0  0  0  0
   -6.8143   29.1642   -6.5449 H   0  0  0  0  0
   -6.6143   27.4815   -6.7911 H   0  0  0  0  0
   -8.2057   28.8674   -4.5987 H   0  0  0  0  0
   -7.0676   27.5768   -4.4290 H   0  0  0  0  0
   -8.6282   25.9181   -5.1498 H   0  0  0  0  0
   -9.7410   27.0365   -4.4887 H   0  0  0  0  0
   -8.1690   25.8122   -8.2456 H   0  0  0  0  0
   -9.0542   26.6258  -10.8991 H   0  0  0  0  0
   -6.7344   27.0576  -11.0207 H   0  0  0  0  0
   -7.2868   25.5868  -12.1167 H   0  0  0  0  0
   -6.0833   24.3173  -10.2170 H   0  0  0  0  0
   -5.6355   24.3779  -12.6731 H   0  0  0  0  0
   -4.7463   25.9059  -12.4589 H   0  0  0  0  0
   -4.1192   24.4024  -11.7397 H   0  0  0  0  0
   -4.6395   26.9743  -10.2236 H   0  0  0  0  0
   -5.5457   26.2739   -8.8601 H   0  0  0  0  0
   -4.0790   25.4644   -9.4639 H   0  0  0  0  0
   -9.3687   24.8558  -12.4255 H   0  0  0  0  0
  -10.0818   22.2772  -11.1891 H   0  0  0  0  0
  -11.8786   23.5715  -10.3241 H   0  0  0  0  0
  -12.5093   22.6425  -11.7630 H   0  0  0  0  0
  -12.2111   26.2822  -10.4868 H   0  0  0  0  0
  -13.5947   26.4081  -14.5171 H   0  0  0  0  0
  -11.3272   20.9450  -12.8264 H   0  0  0  0  0
  -10.0842   21.1439  -15.4395 H   0  0  0  0  0
  -10.6591   18.9875  -14.5091 H   0  0  0  0  0
  -11.6105   19.2629  -16.0042 H   0  0  0  0  0
  -12.8899   18.4380  -14.2663 H   0  0  0  0  0
  -11.7139   20.8047  -17.3966 H   0  0  0  0  0
  -12.7150   23.4018  -17.9504 H   0  0  0  0  0
  -13.4365   20.7566  -19.2687 H   0  0  0  0  0
  -14.8573   22.5960  -20.0385 H   0  0  0  0  0
  -13.4142   23.5757  -20.3973 H   0  0  0  0  0
  -13.7300   22.0850  -21.3187 H   0  0  0  0  0
  -10.2887   20.3191  -17.8984 H   0  0  0  0  0
   -9.0128   21.3806  -19.6209 H   0  0  0  0  0
  -14.4318   24.4927  -17.7149 H   0  0  0  0  0
  -16.5205   23.4901  -15.9872 H   0  0  0  0  0
  -15.8561   25.8579  -15.9631 H   0  0  0  0  0
  -16.3906   26.0398  -17.6520 H   0  0  0  0  0
  -17.5821   25.7017  -16.3726 H   0  0  0  0  0
  -19.1997   22.7100  -18.2722 H   0  0  0  0  0
  -18.8875   23.2549  -16.6208 H   0  0  0  0  0
  1  2  2  0  0  0
  1  3  1  0  0  0
  1 11  1  0  0  0
  3  4  1  0  0  0
  4  5  1  0  0  0
  5  6  4  0  0  0
  5 10  4  0  0  0
  6  7  4  0  0  0
  7  8  4  0  0  0
  8  9  4  0  0  0
  9 10  4  0  0  0
 11 12  1  0  0  0
 11 17  1  0  0  0
 12 13  1  0  0  0
 12 15  1  0  0  0
 13 14  2  0  0  0
 13 18  1  0  0  0
 15 16  1  0  0  0
 16 17  1  0  0  0
 18 19  1  0  0  0
 19 20  1  0  0  0
 19 22  1  0  0  0
 20 21  2  0  0  0
 20 26  1  0  0  0
 22 23  1  0  0  0
 23 24  1  0  0  0
 23 25  1  0  0  0
 26 27  1  0  0  0
 27 28  1  0  0  0
 27 30  1  0  0  0
 28 29  2  0  0  0
 28 36  1  0  0  0
 30 31  1  0  0  0
 31 32  4  0  0  0
 31 33  4  0  0  0
 32 34  4  0  0  0
 33 35  4  0  0  0
 34 35  4  0  0  0
 36 37  1  0  0  0
 37 38  1  0  0  0
 37 40  1  0  0  0
 38 39  2  0  0  0
 38 42  1  0  0  0
 40 41  1  0  0  0
 42 43  1  0  0  0
 43 44  1  0  0  0
 43 51  1  0  0  0
 44 45  1  0  0  0
 44 46  1  0  0  0
 46 47  1  0  0  0
 47 48  2  0  0  0
 47 49  1  0  0  0
 47 50  1  0  0  0
 51 52  2  0  0  0
 51 53  1  0  0  0
 53 54  1  0  0  0
 54 55  1  0  0  0
 54 57  1  0  0  0
 55 56  2  0  0  0
 55 58  1  0  0  0
  3 59  1  0  0  0
  3 60  1  0  0  0
  4 61  1  0  0  0
  4 62  1  0  0  0
  6 63  1  0  0  0
  7 64  1  0  0  0
  8 65  1  0  0  0
  9 66  1  0  0  0
 10 67  1  0  0  0
 12 68  1  0  0  0
 15 69  1  0  0  0
 15 70  1  0  0  0
 16 71  1  0  0  0
 16 72  1  0  0  0
 17 73  1  0  0  0
 17 74  1  0  0  0
 18 75  1  0  0  0
 19 76  1  0  0  0
 22 77  1  0  0  0
 22 78  1  0  0  0
 23 79  1  0  0  0
 24 80  1  0  0  0
 24 81  1  0  0  0
 24 82  1  0  0  0
 25 83  1  0  0  0
 25 84  1  0  0  0
 25 85  1  0  0  0
 26 86  1  0  0  0
 27 87  1  0  0  0
 30 88  1  0  0  0
 30 89  1  0  0  0
 33 90  1  0  0  0
 34 91  1  0  0  0
 36 92  1  0  0  0
 37 93  1  0  0  0
 40 94  1  0  0  0
 40 95  1  0  0  0
 41 96  1  0  0  0
 42 97  1  0  0  0
 43 98  1  0  0  0
 44 99  1  0  0  0
 45100  1  0  0  0
 45101  1  0  0  0
 45102  1  0  0  0
 49103  1  0  0  0
 50104  1  0  0  0
 53105  1  0  0  0
 54106  1  0  0  0
 57107  1  0  0  0
 57108  1  0  0  0
 57109  1  0  0  0
 58110  1  0  0  0
 58111  1  0  0  0
M  END
$$$$
