4e9d_ligand
  -I-interpret- 

140144  0  0  0  0  0  0  0  0999 V2000
    9.0740    7.2360  -20.8090 C   0  0  0  0  0
   10.1330    7.5710  -20.3510 O   0  0  0  0  0
    8.9750    6.1210  -21.8830 C   0  0  0  0  0
    9.7350    4.7920  -21.5610 C   0  0  0  0  0
    9.4650    4.4020  -20.1250 C   0  0  0  0  0
    8.5850    3.5570  -19.6630 C   0  0  0  0  0
   10.1880    5.0300  -18.8630 S   0  0  0  0  0
    8.5640    3.4520  -18.3360 C   0  0  0  0  0
    9.4530    4.2790  -17.7310 C   0  0  0  0  0
    9.5350    4.3170  -16.3680 C   0  0  0  0  0
    8.7340    3.5320  -15.5660 C   0  0  0  0  0
    7.8690    2.6930  -16.1660 C   0  0  0  0  0
    7.7790    2.6660  -17.5180 C   0  0  0  0  0
    8.0120    7.7840  -20.3100 N   0  0  0  0  0
    8.1550    8.7630  -19.2130 C   0  0  0  0  0
    6.7830    8.9940  -18.5610 C   0  0  0  0  0
    5.8860    9.5610  -19.1770 O   0  0  0  0  0
    8.7990    9.9960  -19.7850 C   0  0  0  0  0
    8.5850   11.2960  -19.0860 C   0  0  0  0  0
    8.4630   12.3050  -19.7850 O   0  0  0  0  0
    8.6400   11.2790  -17.8710 O   0  0  0  0  0
    6.5590    8.5370  -17.2880 N   0  0  0  0  0
    5.2810    8.4980  -16.5370 C   0  0  0  0  0
    4.6170    9.8120  -16.3240 C   0  0  0  0  0
    5.2450   10.6730  -15.7480 O   0  0  0  0  0
    5.6540    7.8730  -15.2240 C   0  0  0  0  0
    7.1050    8.1110  -15.1550 C   0  0  0  0  0
    7.5280    7.7660  -16.5160 C   0  0  0  0  0
    3.4340    9.5180  -16.5010 N   0  0  0  0  0
    2.5590   10.6500  -16.1950 C   0  0  0  0  0
    2.4490   10.9550  -14.6960 C   0  0  0  0  0
    2.3440   12.1250  -14.3190 O   0  0  0  0  0
    1.1990   10.2090  -16.7540 C   0  0  0  0  0
    1.2730    8.7310  -16.8290 C   0  0  0  0  0
    2.6960    8.4240  -17.1590 C   0  0  0  0  0
    2.4740    9.9160  -13.8590 N   0  0  0  0  0
    2.2920   10.0680  -12.4100 C   0  0  0  0  0
    3.1350    9.0710  -11.6080 C   0  0  0  0  0
    3.3750    7.9460  -12.0550 O   0  0  0  0  0
    0.8110    9.9190  -12.0390 C   0  0  0  0  0
   -0.1920   10.9100  -12.6440 C   0  0  0  0  0
   -1.5090   10.2250  -12.9810 C   0  0  0  0  0
   -0.4100   12.1120  -11.7310 C   0  0  0  0  0
    3.5740    9.4970  -10.4220 N   0  0  0  0  0
    4.3910    8.6690   -9.5190 C   0  0  0  0  0
    4.3170    9.1340   -8.0580 C   0  0  0  0  0
    3.7080   10.1630   -7.7590 O   0  0  0  0  0
    5.8530    8.6110   -9.9940 C   0  0  0  0  0
    6.4160    9.9370  -10.4100 C   0  0  0  0  0
    6.7880   10.9070   -9.5040 N   0  0  0  0  0
    6.6850   10.4460  -11.6360 C   0  0  0  0  0
    7.2530   11.9590  -10.1540 C   0  0  0  0  0
    7.2020   11.7040  -11.4490 N   0  0  0  0  0
    4.9380    8.3710   -7.1550 N   0  0  0  0  0
    4.9930    8.7300   -5.7300 C   0  0  0  0  0
    5.9810    9.8710   -5.4660 C   0  0  0  0  0
    6.6600   10.3360   -6.3870 O   0  0  0  0  0
    5.3330    7.5110   -4.8620 C   0  0  0  0  0
    6.6320    7.0210   -5.1380 O   0  0  0  0  0
    6.0550   10.3060   -4.2050 N   0  0  0  0  0
    6.8760   11.4570   -3.8030 C   0  0  0  0  0
    6.8620   11.6330   -2.2830 C   0  0  0  0  0
    7.6980   12.8190   -1.8090 C   0  0  0  0  0
    5.5130   11.8520   -1.8770 O   0  0  0  0  0
    4.8070   10.9510   -0.7440 P   0  0  0  0  0
    5.1000    9.5320   -1.1700 O   0  0  0  0  0
    5.4890   11.3570    0.5410 O   0  0  0  0  0
    3.3480   11.3440   -0.8280 O   0  0  0  0  0
    8.2730   11.3940   -4.3580 C   0  0  0  0  0
    8.9840   10.4000   -4.1830 O   0  0  0  0  0
    8.6560   12.4650   -5.0470 N   0  0  0  0  0
    9.9420   12.5540   -5.7200 C   0  0  0  0  0
   10.8820   13.5060   -4.9880 C   0  0  0  0  0
   11.7300   13.0750   -4.2070 O   0  0  0  0  0
    9.7450   12.9960   -7.1630 C   0  0  0  0  0
   10.8020   14.5796   -5.1583 O   0  0  0  0  0
    9.4316    6.5243  -22.7869 H   0  0  0  0  0
    7.9193    5.8602  -21.9581 H   0  0  0  0  0
   10.8054    4.9377  -21.7060 H   0  0  0  0  0
    9.3887    4.0014  -22.2267 H   0  0  0  0  0
    7.9213    2.9839  -20.3104 H   0  0  0  0  0
   10.2554    4.9881  -15.9003 H   0  0  0  0  0
    8.7992    3.5890  -14.4794 H   0  0  0  0  0
    7.2412    2.0355  -15.5646 H   0  0  0  0  0
    7.0550    1.9941  -17.9790 H   0  0  0  0  0
    7.0886    7.5427  -20.6698 H   0  0  0  0  0
    8.8010    8.4094  -18.4094 H   0  0  0  0  0
    8.3493   10.1231  -20.7698 H   0  0  0  0  0
    9.8718    9.8123  -19.7256 H   0  0  0  0  0
    8.4452   12.0514  -20.7107 H   0  0  0  0  0
    4.5368    7.9451  -17.1101 H   0  0  0  0  0
    5.3925    6.8164  -15.1657 H   0  0  0  0  0
    5.1119    8.2995  -14.3800 H   0  0  0  0  0
    7.6050    7.5259  -14.3832 H   0  0  0  0  0
    7.3650    9.1288  -14.8641 H   0  0  0  0  0
    8.5689    8.0024  -16.7367 H   0  0  0  0  0
    7.5253    6.6973  -16.7303 H   0  0  0  0  0
    2.9441   11.5733  -16.6278 H   0  0  0  0  0
    1.0015   10.6526  -17.7299 H   0  0  0  0  0
    0.3764   10.5396  -16.1199 H   0  0  0  0  0
    0.5919    8.3329  -17.5811 H   0  0  0  0  0
    0.9694    8.2660  -15.8911 H   0  0  0  0  0
    3.0061    7.4380  -16.8129 H   0  0  0  0  0
    2.8795    8.3771  -18.2324 H   0  0  0  0  0
    2.6251    8.9819  -14.2398 H   0  0  0  0  0
    2.6347   11.0694  -12.1493 H   0  0  0  0  0
    0.7663   10.0861  -10.9628 H   0  0  0  0  0
    0.5159    8.9420  -12.4218 H   0  0  0  0  0
    0.2357   11.2814  -13.5752 H   0  0  0  0  0
   -1.3285    9.4283  -13.7027 H   0  0  0  0  0
   -1.9406    9.8036  -12.0731 H   0  0  0  0  0
   -2.1976   10.9543  -13.4076 H   0  0  0  0  0
   -0.7969   11.7716  -10.7705 H   0  0  0  0  0
    0.5379   12.6285  -11.5799 H   0  0  0  0  0
   -1.1262   12.7919  -12.1924 H   0  0  0  0  0
    3.3317   10.4427  -10.1264 H   0  0  0  0  0
    3.9693    7.6645   -9.5552 H   0  0  0  0  0
    5.8820    7.9604  -10.8680 H   0  0  0  0  0
    6.4506    8.2566   -9.1541 H   0  0  0  0  0
    6.5215    9.9495  -12.5925 H   0  0  0  0  0
    7.6167   12.8804   -9.6991 H   0  0  0  0  0
    5.3894    7.5101   -7.4641 H   0  0  0  0  0
    3.9994    9.0822   -5.4530 H   0  0  0  0  0
    4.6136    6.7216   -5.0799 H   0  0  0  0  0
    5.2936    7.8119   -3.8151 H   0  0  0  0  0
    6.8115    6.2611   -4.5795 H   0  0  0  0  0
    5.5175    9.8174   -3.4889 H   0  0  0  0  0
    6.4241   12.3462   -4.2425 H   0  0  0  0  0
    7.2918   10.7328   -1.8437 H   0  0  0  0  0
    8.7343   12.6771   -2.1158 H   0  0  0  0  0
    7.3090   13.7360   -2.2515 H   0  0  0  0  0
    7.6456   12.8877   -0.7224 H   0  0  0  0  0
    5.2598   12.2654    0.7504 H   0  0  0  0  0
    3.2461   12.2547   -0.5420 H   0  0  0  0  0
    8.0192   13.2596   -5.1061 H   0  0  0  0  0
   10.4021   11.5659   -5.7138 H   0  0  0  0  0
   11.6711   12.1176   -4.1689 H   0  0  0  0  0
    9.1178   12.2708   -7.6814 H   0  0  0  0  0
    9.2625   13.9732   -7.1797 H   0  0  0  0  0
   10.7142   13.0594   -7.6578 H   0  0  0  0  0
  1  2  2  0  0  0
  1  3  1  0  0  0
  1 14  1  0  0  0
  3  4  1  0  0  0
  4  5  1  0  0  0
  5  6  4  0  0  0
  5  7  4  0  0  0
  6  8  4  0  0  0
  7  9  4  0  0  0
  8  9  4  0  0  0
  8 13  4  0  0  0
  9 10  4  0  0  0
 10 11  4  0  0  0
 11 12  4  0  0  0
 12 13  4  0  0  0
 14 15  1  0  0  0
 15 16  1  0  0  0
 15 18  1  0  0  0
 16 17  2  0  0  0
 16 22  1  0  0  0
 18 19  1  0  0  0
 19 20  1  0  0  0
 19 21  2  0  0  0
 22 23  1  0  0  0
 22 28  1  0  0  0
 23 24  1  0  0  0
 23 26  1  0  0  0
 24 25  2  0  0  0
 24 29  1  0  0  0
 26 27  1  0  0  0
 27 28  1  0  0  0
 29 30  1  0  0  0
 29 35  1  0  0  0
 30 31  1  0  0  0
 30 33  1  0  0  0
 31 32  2  0  0  0
 31 36  1  0  0  0
 33 34  1  0  0  0
 34 35  1  0  0  0
 36 37  1  0  0  0
 37 38  1  0  0  0
 37 40  1  0  0  0
 38 39  2  0  0  0
 38 44  1  0  0  0
 40 41  1  0  0  0
 41 42  1  0  0  0
 41 43  1  0  0  0
 44 45  1  0  0  0
 45 46  1  0  0  0
 45 48  1  0  0  0
 46 47  2  0  0  0
 46 54  1  0  0  0
 48 49  1  0  0  0
 49 50  4  0  0  0
 49 51  4  0  0  0
 50 52  4  0  0  0
 51 53  4  0  0  0
 52 53  4  0  0  0
 54 55  1  0  0  0
 55 56  1  0  0  0
 55 58  1  0  0  0
 56 57  2  0  0  0
 56 60  1  0  0  0
 58 59  1  0  0  0
 60 61  1  0  0  0
 61 62  1  0  0  0
 61 69  1  0  0  0
 62 63  1  0  0  0
 62 64  1  0  0  0
 64 65  1  0  0  0
 65 66  2  0  0  0
 65 67  1  0  0  0
 65 68  1  0  0  0
 69 70  2  0  0  0
 69 71  1  0  0  0
 71 72  1  0  0  0
 72 73  1  0  0  0
 72 75  1  0  0  0
 73 74  1  0  0  0
 73 76  2  0  0  0
  3 77  1  0  0  0
  3 78  1  0  0  0
  4 79  1  0  0  0
  4 80  1  0  0  0
  6 81  1  0  0  0
 10 82  1  0  0  0
 11 83  1  0  0  0
 12 84  1  0  0  0
 13 85  1  0  0  0
 14 86  1  0  0  0
 15 87  1  0  0  0
 18 88  1  0  0  0
 18 89  1  0  0  0
 20 90  1  0  0  0
 23 91  1  0  0  0
 26 92  1  0  0  0
 26 93  1  0  0  0
 27 94  1  0  0  0
 27 95  1  0  0  0
 28 96  1  0  0  0
 28 97  1  0  0  0
 30 98  1  0  0  0
 33 99  1  0  0  0
 33100  1  0  0  0
 34101  1  0  0  0
 34102  1  0  0  0
 35103  1  0  0  0
 35104  1  0  0  0
 36105  1  0  0  0
 37106  1  0  0  0
 40107  1  0  0  0
 40108  1  0  0  0
 41109  1  0  0  0
 42110  1  0  0  0
 42111  1  0  0  0
 42112  1  0  0  0
 43113  1  0  0  0
 43114  1  0  0  0
 43115  1  0  0  0
 44116  1  0  0  0
 45117  1  0  0  0
 48118  1  0  0  0
 48119  1  0  0  0
 51120  1  0  0  0
 52121  1  0  0  0
 54122  1  0  0  0
 55123  1  0  0  0
 58124  1  0  0  0
 58125  1  0  0  0
 59126  1  0  0  0
 60127  1  0  0  0
 61128  1  0  0  0
 62129  1  0  0  0
 63130  1  0  0  0
 63131  1  0  0  0
 63132  1  0  0  0
 67133  1  0  0  0
 68134  1  0  0  0
 71135  1  0  0  0
 72136  1  0  0  0
 74137  1  0  0  0
 75138  1  0  0  0
 75139  1  0  0  0
 75140  1  0  0  0
M  END
$$$$
