4f3h_ligand
  -I-interpret- 

 68 74  0  0  0  0  0  0  0  0999 V2000
   23.3040  -27.0400  -37.3880 P   0  0  0  0  0
   24.5870  -26.8170  -36.6580 O   0  0  0  0  0
   22.5640  -25.7570  -37.5460 O   0  0  0  0  0
   23.6000  -27.6560  -38.7900 O   0  0  0  0  0
   22.5780  -28.0070  -39.7120 C   0  0  0  0  0
   23.2810  -28.5550  -40.9630 C   0  0  0  0  0
   24.1290  -27.5440  -41.4050 O   0  0  0  0  0
   24.1890  -29.7540  -40.7750 C   0  0  0  0  0
   23.4280  -30.9870  -40.8940 O   0  0  0  0  0
   25.2290  -29.4870  -41.8490 C   0  0  0  0  0
   24.8320  -30.1290  -43.0700 O   0  0  0  0  0
   25.3480  -27.9590  -42.0050 C   0  0  0  0  0
   26.5180  -27.4770  -41.2310 N   0  0  0  0  0
   26.5100  -26.8220  -40.0590 C   0  0  0  0  0
   27.7530  -26.5240  -39.6480 N   0  0  0  0  0
   28.5960  -26.9780  -40.5750 C   0  0  0  0  0
   30.0820  -26.9820  -40.7860 C   0  0  0  0  0
   30.8520  -26.4560  -39.9410 O   0  0  0  0  0
   30.5720  -27.5590  -41.9160 N   0  0  0  0  0
   29.7530  -28.1310  -42.8510 C   0  0  0  0  0
   30.2710  -28.6920  -43.9660 N   0  0  0  0  0
   28.3940  -28.1570  -42.7020 N   0  0  0  0  0
   27.7770  -27.6080  -41.6130 C   0  0  0  0  0
   23.7440  -31.9910  -39.7010 P   0  0  0  0  0
   25.2140  -32.2400  -39.7760 O   0  0  0  0  0
   22.9360  -33.2130  -39.9460 O   0  0  0  0  0
   23.3390  -31.3010  -38.3090 O   0  0  0  0  0
   21.9450  -31.0470  -38.0300 C   0  0  0  0  0
   21.7120  -30.2970  -36.7220 C   0  0  0  0  0
   21.2980  -30.9990  -35.5120 O   0  0  0  0  0
   22.8670  -29.3390  -36.3430 C   0  0  0  0  0
   22.3480  -28.0080  -36.5380 O   0  0  0  0  0
   23.2190  -29.7110  -34.9280 C   0  0  0  0  0
   23.3830  -28.5360  -34.1290 O   0  0  0  0  0
   22.1120  -30.6350  -34.3950 C   0  0  0  0  0
   22.6430  -31.8210  -33.6660 N   0  0  0  0  0
   22.3110  -32.1610  -32.3870 C   0  0  0  0  0
   22.9470  -33.2880  -31.9820 N   0  0  0  0  0
   23.7150  -33.7030  -33.0120 C   0  0  0  0  0
   24.6590  -34.8280  -33.2860 C   0  0  0  0  0
   24.9040  -35.6950  -32.4380 O   0  0  0  0  0
   25.2540  -34.8930  -34.5040 N   0  0  0  0  0
   25.0280  -33.9720  -35.4820 C   0  0  0  0  0
   25.6610  -34.1120  -36.6580 N   0  0  0  0  0
   24.1810  -32.9130  -35.3100 N   0  0  0  0  0
   23.5090  -32.7270  -34.1190 C   0  0  0  0  0
   25.0504  -27.6526  -36.5651 H   0  0  0  0  0
   21.9641  -27.1410  -39.9595 H   0  0  0  0  0
   21.9088  -28.7535  -39.2843 H   0  0  0  0  0
   22.4764  -28.8682  -41.6283 H   0  0  0  0  0
   24.6570  -29.8809  -39.7988 H   0  0  0  0  0
   26.2037  -29.8936  -41.5793 H   0  0  0  0  0
   25.4902  -29.9595  -43.7480 H   0  0  0  0  0
   25.4906  -27.5943  -43.0222 H   0  0  0  0  0
   25.6053  -26.5638  -39.5086 H   0  0  0  0  0
   31.2799  -28.6912  -44.1158 H   0  0  0  0  0
   27.8246  -28.5986  -43.4240 H   0  0  0  0  0
   25.6851  -31.4201  -39.6105 H   0  0  0  0  0
   21.4466  -32.0128  -37.9467 H   0  0  0  0  0
   21.5577  -30.4253  -38.8372 H   0  0  0  0  0
   20.8084  -29.7773  -37.0407 H   0  0  0  0  0
   23.7828  -29.3988  -36.9311 H   0  0  0  0  0
   24.1706  -30.2411  -34.8883 H   0  0  0  0  0
   23.6069  -28.7899  -33.2307 H   0  0  0  0  0
   21.5187  -30.1088  -33.6472 H   0  0  0  0  0
   21.6176  -31.5946  -31.7653 H   0  0  0  0  0
   26.2963  -34.8963  -36.8050 H   0  0  0  0  0
   24.0436  -32.2504  -36.0732 H   0  0  0  0  0
  1  2  1  0  0  0
  1  3  2  0  0  0
  1  4  1  0  0  0
  1 32  1  0  0  0
  4  5  1  0  0  0
  5  6  1  0  0  0
  6  7  1  0  0  0
  6  8  1  0  0  0
  7 12  1  0  0  0
  8  9  1  0  0  0
  8 10  1  0  0  0
  9 24  1  0  0  0
 10 11  1  0  0  0
 10 12  1  0  0  0
 12 13  1  0  0  0
 13 14  4  0  0  0
 13 23  4  0  0  0
 14 15  4  0  0  0
 15 16  4  0  0  0
 16 17  1  0  0  0
 16 23  4  0  0  0
 17 18  2  0  0  0
 17 19  1  0  0  0
 19 20  4  0  0  0
 20 21  2  0  0  0
 20 22  1  0  0  0
 22 23  1  0  0  0
 24 25  1  0  0  0
 24 26  2  0  0  0
 24 27  1  0  0  0
 27 28  1  0  0  0
 28 29  1  0  0  0
 29 30  1  0  0  0
 29 31  1  0  0  0
 30 35  1  0  0  0
 31 32  1  0  0  0
 31 33  1  0  0  0
 33 34  1  0  0  0
 33 35  1  0  0  0
 35 36  1  0  0  0
 36 37  4  0  0  0
 36 46  4  0  0  0
 37 38  4  0  0  0
 38 39  4  0  0  0
 39 40  1  0  0  0
 39 46  4  0  0  0
 40 41  2  0  0  0
 40 42  1  0  0  0
 42 43  4  0  0  0
 43 44  2  0  0  0
 43 45  1  0  0  0
 45 46  1  0  0  0
  2 47  1  0  0  0
  5 48  1  0  0  0
  5 49  1  0  0  0
  6 50  1  0  0  0
  8 51  1  0  0  0
 10 52  1  0  0  0
 11 53  1  0  0  0
 12 54  1  0  0  0
 14 55  1  0  0  0
 21 56  1  0  0  0
 22 57  1  0  0  0
 25 58  1  0  0  0
 28 59  1  0  0  0
 28 60  1  0  0  0
 29 61  1  0  0  0
 31 62  1  0  0  0
 33 63  1  0  0  0
 34 64  1  0  0  0
 35 65  1  0  0  0
 37 66  1  0  0  0
 44 67  1  0  0  0
 45 68  1  0  0  0
M  END
$$$$
