4g0a_ligand
  -I-interpret- 

 72 77  0  0  0  0  0  0  0  0999 V2000
  -13.6080   17.5520    5.1350 P   0  0  0  0  0
  -14.1300   16.8680    6.3450 O   0  0  0  0  0
  -12.8430   16.7750    4.1250 O   0  0  0  0  0
  -14.7550   18.4110    4.4350 O   0  0  0  0  0
  -15.3620   19.5050    5.1090 C   0  0  0  0  0
  -16.2990   20.2620    4.2010 C   0  0  0  0  0
  -15.5570   20.8180    3.0880 O   0  0  0  0  0
  -17.4000   19.4380    3.5490 C   0  0  0  0  0
  -18.5210   19.2560    4.3970 O   0  0  0  0  0
  -17.7170   20.2280    2.2840 C   0  0  0  0  0
  -18.5820   21.3160    2.5750 O   0  0  0  0  0
  -16.3410   20.7870    1.9160 C   0  0  0  0  0
  -15.6500   19.9550    0.9120 N   0  0  0  0  0
  -15.0570   18.7310    1.1050 C   0  0  0  0  0
  -14.5200   18.2450    0.0200 N   0  0  0  0  0
  -14.7700   19.2060   -0.9500 C   0  0  0  0  0
  -14.4290   19.2360   -2.3270 C   0  0  0  0  0
  -13.8130   18.3880   -2.9850 O   0  0  0  0  0
  -14.8790   20.4030   -2.9380 N   0  0  0  0  0
  -15.5690   21.4120   -2.3080 C   0  0  0  0  0
  -15.9210   22.4640   -3.0630 N   0  0  0  0  0
  -15.8920   21.3930   -1.0270 N   0  0  0  0  0
  -15.4640   20.2690   -0.4140 C   0  0  0  0  0
  -19.2300   17.8190    4.5110 P   0  0  0  0  0
  -19.5240   17.5890    5.9470 O   0  0  0  0  0
  -18.3670   16.8470    3.7960 O   0  0  0  0  0
  -20.5890   18.0300    3.7090 O   0  0  0  0  0
  -20.6020   18.0780    2.2890 C   0  0  0  0  0
  -22.0040   18.2380    1.7580 C   0  0  0  0  0
  -22.8480   17.1860    2.2920 O   0  0  0  0  0
  -22.7160   19.5260    2.1450 C   0  0  0  0  0
  -22.3800   20.6150    1.3020 O   0  0  0  0  0
  -24.1860   19.1350    2.0820 C   0  0  0  0  0
  -24.6490   19.1380    0.7390 O   0  0  0  0  0
  -24.1360   17.6890    2.5720 C   0  0  0  0  0
  -24.3680   17.5870    4.0260 N   0  0  0  0  0
  -23.7470   18.3030    5.0210 C   0  0  0  0  0
  -24.1610   17.9840    6.2170 N   0  0  0  0  0
  -25.1120   16.9960    5.9990 C   0  0  0  0  0
  -25.9070   16.2650    6.9200 C   0  0  0  0  0
  -25.9310   16.3480    8.1540 O   0  0  0  0  0
  -26.7380   15.3600    6.2690 N   0  0  0  0  0
  -26.8000   15.1780    4.9100 C   0  0  0  0  0
  -27.6690   14.2540    4.4760 N   0  0  0  0  0
  -26.0650   15.8530    4.0410 N   0  0  0  0  0
  -25.2500   16.7380    4.6520 C   0  0  0  0  0
  -22.8630   22.1030    1.6690 P   0  0  0  0  0
  -24.2160   22.2960    1.1020 O   0  0  0  0  0
  -21.7730   23.0380    1.3100 O   0  0  0  0  0
  -12.5775   17.3570    3.4092 H   0  0  0  0  0
  -14.5772   20.1852    5.4401 H   0  0  0  0  0
  -15.9353   19.1169    5.9510 H   0  0  0  0  0
  -16.7559   20.9969    4.8638 H   0  0  0  0  0
  -17.0970   18.4136    3.3322 H   0  0  0  0  0
  -18.2016   19.6312    1.5113 H   0  0  0  0  0
  -18.7690   21.7996    1.7671 H   0  0  0  0  0
  -16.4777   21.7800    1.4878 H   0  0  0  0  0
  -15.0372   18.2182    2.0666 H   0  0  0  0  0
  -15.6752   22.4865   -4.0527 H   0  0  0  0  0
  -16.4042   22.1393   -0.5568 H   0  0  0  0  0
  -20.0895   18.2928    6.2734 H   0  0  0  0  0
  -20.1912   17.1435    1.9069 H   0  0  0  0  0
  -20.0092   18.9337    1.9657 H   0  0  0  0  0
  -21.8710   18.2213    0.6763 H   0  0  0  0  0
  -22.4280   19.8962    3.1289 H   0  0  0  0  0
  -24.8376   19.8014    2.6472 H   0  0  0  0  0
  -25.5761   18.8894    0.7208 H   0  0  0  0  0
  -24.9197   17.1243    2.0670 H   0  0  0  0  0
  -22.9863   19.0601    4.8308 H   0  0  0  0  0
  -28.2366   13.7337    5.1449 H   0  0  0  0  0
  -26.1092   15.7203    3.0306 H   0  0  0  0  0
  -20.9663   22.7748    1.7589 H   0  0  0  0  0
  1  2  2  0  0  0
  1  3  1  0  0  0
  1  4  1  0  0  0
  4  5  1  0  0  0
  5  6  1  0  0  0
  6  7  1  0  0  0
  6  8  1  0  0  0
  7 12  1  0  0  0
  8  9  1  0  0  0
  8 10  1  0  0  0
  9 24  1  0  0  0
 10 11  1  0  0  0
 10 12  1  0  0  0
 12 13  1  0  0  0
 13 14  4  0  0  0
 13 23  4  0  0  0
 14 15  4  0  0  0
 15 16  4  0  0  0
 16 17  1  0  0  0
 16 23  4  0  0  0
 17 18  2  0  0  0
 17 19  1  0  0  0
 19 20  4  0  0  0
 20 21  2  0  0  0
 20 22  1  0  0  0
 22 23  1  0  0  0
 24 25  1  0  0  0
 24 26  2  0  0  0
 24 27  1  0  0  0
 27 28  1  0  0  0
 28 29  1  0  0  0
 29 30  1  0  0  0
 29 31  1  0  0  0
 30 35  1  0  0  0
 31 32  1  0  0  0
 31 33  1  0  0  0
 32 47  1  0  0  0
 33 34  1  0  0  0
 33 35  1  0  0  0
 35 36  1  0  0  0
 36 37  4  0  0  0
 36 46  4  0  0  0
 37 38  4  0  0  0
 38 39  4  0  0  0
 39 40  1  0  0  0
 39 46  4  0  0  0
 40 41  2  0  0  0
 40 42  1  0  0  0
 42 43  4  0  0  0
 43 44  2  0  0  0
 43 45  1  0  0  0
 45 46  1  0  0  0
 47 48  2  0  0  0
 47 49  1  0  0  0
  3 50  1  0  0  0
  5 51  1  0  0  0
  5 52  1  0  0  0
  6 53  1  0  0  0
  8 54  1  0  0  0
 10 55  1  0  0  0
 11 56  1  0  0  0
 12 57  1  0  0  0
 14 58  1  0  0  0
 21 59  1  0  0  0
 22 60  1  0  0  0
 25 61  1  0  0  0
 28 62  1  0  0  0
 28 63  1  0  0  0
 29 64  1  0  0  0
 31 65  1  0  0  0
 33 66  1  0  0  0
 34 67  1  0  0  0
 35 68  1  0  0  0
 37 69  1  0  0  0
 44 70  1  0  0  0
 45 71  1  0  0  0
 49 72  1  0  0  0
M  END
$$$$
