4jfz_ligand
  -I-interpret- 

146147  0  0  0  0  0  0  0  0999 V2000
   -4.4650   39.0300    4.7560 N   0  3  0  0  0
   -4.4750   37.5430    4.5860 C   0  0  0  0  0
   -3.3490   37.0670    3.6690 C   0  0  0  0  0
   -3.2710   37.4850    2.5220 O   0  0  0  0  0
   -5.8220   37.0740    4.0130 C   0  0  0  0  0
   -5.8530   35.5840    3.6610 C   0  0  0  0  0
   -7.1700   35.1630    2.9950 C   0  0  0  0  0
   -7.3680   35.8160    1.6190 C   0  0  0  0  0
   -6.2160   35.6180    0.6710 N   0  3  0  0  0
   -2.4840   36.1880    4.1690 N   0  0  0  0  0
   -1.5100   35.5410    3.3040 C   0  0  0  0  0
   -0.6970   36.5650    2.5340 C   0  0  0  0  0
   -0.5430   36.4730    1.3120 O   0  0  0  0  0
   -0.1820   37.5520    3.2580 N   0  0  0  0  0
    0.5170   38.6570    2.6220 C   0  0  0  0  0
    1.9700   38.3350    2.4240 C   0  0  0  0  0
    2.7980   39.2570    2.4710 O   0  0  0  0  0
    0.3900   39.9650    3.4500 C   0  0  0  0  0
    1.0450   39.8760    4.8310 C   0  0  0  0  0
    1.3620   38.7970    5.3170 O   0  0  0  0  0
    1.2400   41.0270    5.4660 N   0  0  0  0  0
    2.3030   37.0500    2.2030 N   0  0  0  0  0
    3.7120   36.7130    2.0700 C   0  0  0  0  0
    4.0720   35.4980    1.2090 C   0  0  0  0  0
    3.3210   34.5400    1.0380 O   0  0  0  0  0
    4.3830   36.6340    3.4560 C   0  0  0  0  0
    4.0450   35.4170    4.2810 C   0  0  0  0  0
    4.7250   34.2280    4.0880 C   0  0  0  0  0
    3.0800   35.4720    5.2810 C   0  0  0  0  0
    4.4450   33.1110    4.8470 C   0  0  0  0  0
    2.7920   34.3700    6.0620 C   0  0  0  0  0
    3.4710   33.1940    5.8330 C   0  0  0  0  0
    3.2190   32.1070    6.6060 O   0  0  0  0  0
    5.2840   35.5720    0.6840 N   0  0  0  0  0
    5.8140   34.5680   -0.2090 C   0  0  0  0  0
    6.9110   33.7440    0.4800 C   0  0  0  0  0
    7.8370   34.2940    1.0810 O   0  0  0  0  0
    6.3790   35.2770   -1.4480 C   0  0  0  0  0
    7.2670   34.3400   -2.2900 C   0  0  0  0  0
    5.2170   35.8420   -2.2970 C   0  0  0  0  0
    6.8000   32.4220    0.3850 N   0  0  0  0  0
    7.8510   31.5520    0.8910 C   0  0  0  0  0
    8.6740   30.9260   -0.2390 C   0  0  0  0  0
    9.9070   30.8510   -0.1740 O   0  0  0  0  0
    7.2300   30.4440    1.7710 C   0  0  0  0  0
    8.2770   29.4450    2.2460 C   0  0  0  0  0
    6.5410   31.0840    2.9850 C   0  0  0  0  0
    7.9850   30.4450   -1.2680 N   0  0  0  0  0
    8.6400   29.8690   -2.4300 C   0  0  0  0  0
    8.6000   30.9030   -3.5360 C   0  0  0  0  0
    7.5360   31.2540   -4.0190 O   0  0  0  0  0
    7.9250   28.5700   -2.8950 C   0  0  0  0  0
    8.0590   27.5730   -1.8790 O   0  0  0  0  0
    8.5400   28.0170   -4.2080 C   0  0  0  0  0
    9.7700   31.3940   -3.9270 N   0  0  0  0  0
    9.8700   32.4090   -4.9330 C   0  0  0  0  0
   11.3020   32.7660   -5.1970 C   0  0  0  0  0
   12.0400   33.3410   -4.1690 O   0  0  0  0  0
    9.2230   31.9560   -6.2110 C   0  0  0  0  0
    9.2390   30.7770   -6.5780 O   0  0  0  0  0
   12.4920   34.8350   -4.3010 P   0  0  0  0  0
   13.3190   35.1950   -3.0830 O   0  0  0  0  0
   11.1970   35.6110   -4.4030 O   0  0  0  0  0
   13.2560   34.8720   -5.5940 O   0  0  0  0  0
    8.6120   32.9080   -6.8980 N   0  0  0  0  0
    7.9580   32.6140   -8.1850 C   0  0  0  0  0
    8.2000   33.7490   -9.1740 C   0  0  0  0  0
    9.1140   34.5630   -8.9980 O   0  0  0  0  0
    6.4560   32.3830   -7.9920 C   0  0  0  0  0
    5.7620   33.5050   -7.2750 C   0  0  0  0  0
    5.5940   33.5220   -5.9060 N   0  0  0  0  0
    5.2060   34.6480   -7.7410 C   0  0  0  0  0
    4.9550   34.6310   -5.5610 C   0  0  0  0  0
    4.7120   35.3320   -6.6520 N   0  0  0  0  0
    7.4930   33.8740  -10.1770 O   0  0  0  0  0
   -3.5646   39.3215    5.1365 H   0  0  0  0  0
   -4.6130   39.4755    3.8505 H   0  0  0  0  0
   -5.2105   39.3028    5.3964 H   0  0  0  0  0
   -4.3222   37.1095    5.5743 H   0  0  0  0  0
   -5.9974   37.6310    3.0926 H   0  0  0  0  0
   -6.5798   37.2450    4.7776 H   0  0  0  0  0
   -5.7491   35.0181    4.5868 H   0  0  0  0  0
   -5.0436   35.3883    2.9577 H   0  0  0  0  0
   -7.9895   35.4811    3.6394 H   0  0  0  0  0
   -7.1453   34.0824    2.8541 H   0  0  0  0  0
   -7.4685   36.8888    1.7835 H   0  0  0  0  0
   -8.2423   35.3500    1.1646 H   0  0  0  0  0
   -6.4234   36.0787   -0.2151 H   0  0  0  0  0
   -5.3710   36.0213    1.0757 H   0  0  0  0  0
   -6.0756   34.6203    0.5122 H   0  0  0  0  0
   -2.5041   35.9667    5.1645 H   0  0  0  0  0
   -2.0414   34.9104    2.5912 H   0  0  0  0  0
   -0.8327   34.9512    3.9217 H   0  0  0  0  0
   -0.2780   37.5347    4.2733 H   0  0  0  0  0
    0.0474   38.8103    1.6504 H   0  0  0  0  0
   -0.6723   40.1561    3.6018 H   0  0  0  0  0
    0.8969   40.7552    2.8961 H   0  0  0  0  0
    1.6676   41.0325    6.3920 H   0  0  0  0  0
    0.9621   41.9049    5.0273 H   0  0  0  0  0
    1.5847   36.3295    2.1305 H   0  0  0  0  0
    4.1160   37.5427    1.4900 H   0  0  0  0  0
    4.0272   37.4964    4.0197 H   0  0  0  0  0
    5.4573   36.5950    3.2760 H   0  0  0  0  0
    5.4974   34.1728    3.3209 H   0  0  0  0  0
    2.5402   36.4034    5.4517 H   0  0  0  0  0
    4.9803   32.1771    4.6754 H   0  0  0  0  0
    2.0388   34.4301    6.8476 H   0  0  0  0  0
    2.5263   32.3177    7.2364 H   0  0  0  0  0
    5.8698   36.3730    0.9201 H   0  0  0  0  0
    5.0197   33.8796   -0.4976 H   0  0  0  0  0
    7.0124   36.0979   -1.1118 H   0  0  0  0  0
    8.1032   33.9920   -1.6836 H   0  0  0  0  0
    6.6779   33.4856   -2.6233 H   0  0  0  0  0
    7.6457   34.8820   -3.1565 H   0  0  0  0  0
    4.5675   35.0249   -2.6111 H   0  0  0  0  0
    4.6456   36.5534   -1.7008 H   0  0  0  0  0
    5.6216   36.3445   -3.1756 H   0  0  0  0  0
    5.9706   32.0143   -0.0465 H   0  0  0  0  0
    8.5293   32.1622    1.4874 H   0  0  0  0  0
    6.5031   29.9017    1.1663 H   0  0  0  0  0
    8.7461   28.9739    1.3822 H   0  0  0  0  0
    9.0337   29.9653    2.8333 H   0  0  0  0  0
    7.7979   28.6834    2.8612 H   0  0  0  0  0
    7.2755   31.6422    3.5655 H   0  0  0  0  0
    5.7574   31.7596    2.6421 H   0  0  0  0  0
    6.1028   30.3028    3.6061 H   0  0  0  0  0
    6.9660   30.4811   -1.2415 H   0  0  0  0  0
    9.6666   29.6026   -2.1784 H   0  0  0  0  0
    6.8772   28.8101   -3.0755 H   0  0  0  0  0
    7.6186   26.7682   -2.1619 H   0  0  0  0  0
    8.4434   28.7641   -4.9958 H   0  0  0  0  0
    9.5941   27.7911   -4.0470 H   0  0  0  0  0
    8.0130   27.1087   -4.5002 H   0  0  0  0  0
   10.6239   31.0375   -3.4979 H   0  0  0  0  0
    9.3499   33.2920   -4.5618 H   0  0  0  0  0
   11.2683   33.5215   -5.9820 H   0  0  0  0  0
   11.7981   31.8191   -5.4101 H   0  0  0  0  0
   12.7675   35.1501   -2.2985 H   0  0  0  0  0
   10.7330   35.5688   -3.5636 H   0  0  0  0  0
    8.5936   33.8595   -6.5309 H   0  0  0  0  0
    8.3934   31.7002   -8.5893 H   0  0  0  0  0
    9.5796   34.3490   -8.1862 H   0  0  0  0  0
    6.3389   31.4854   -7.3848 H   0  0  0  0  0
    6.0081   32.3017   -8.9824 H   0  0  0  0  0
    5.1582   34.9671   -8.7821 H   0  0  0  0  0
    4.6770   34.9159   -4.5463 H   0  0  0  0  0
  1  2  1  0  0  0
  2  3  1  0  0  0
  2  5  1  0  0  0
  3  4  2  0  0  0
  3 10  1  0  0  0
  5  6  1  0  0  0
  6  7  1  0  0  0
  7  8  1  0  0  0
  8  9  1  0  0  0
 10 11  1  0  0  0
 11 12  1  0  0  0
 12 13  2  0  0  0
 12 14  1  0  0  0
 14 15  1  0  0  0
 15 16  1  0  0  0
 15 18  1  0  0  0
 16 17  2  0  0  0
 16 22  1  0  0  0
 18 19  1  0  0  0
 19 20  2  0  0  0
 19 21  1  0  0  0
 22 23  1  0  0  0
 23 24  1  0  0  0
 23 26  1  0  0  0
 24 25  2  0  0  0
 24 34  1  0  0  0
 26 27  1  0  0  0
 27 28  4  0  0  0
 27 29  4  0  0  0
 28 30  4  0  0  0
 29 31  4  0  0  0
 30 32  4  0  0  0
 31 32  4  0  0  0
 32 33  1  0  0  0
 34 35  1  0  0  0
 35 36  1  0  0  0
 35 38  1  0  0  0
 36 37  2  0  0  0
 36 41  1  0  0  0
 38 39  1  0  0  0
 38 40  1  0  0  0
 41 42  1  0  0  0
 42 43  1  0  0  0
 42 45  1  0  0  0
 43 44  2  0  0  0
 43 48  1  0  0  0
 45 46  1  0  0  0
 45 47  1  0  0  0
 48 49  1  0  0  0
 49 50  1  0  0  0
 49 52  1  0  0  0
 50 51  2  0  0  0
 50 55  1  0  0  0
 52 53  1  0  0  0
 52 54  1  0  0  0
 55 56  1  0  0  0
 56 57  1  0  0  0
 56 59  1  0  0  0
 57 58  1  0  0  0
 58 61  1  0  0  0
 59 60  2  0  0  0
 59 65  1  0  0  0
 61 62  1  0  0  0
 61 63  1  0  0  0
 61 64  2  0  0  0
 65 66  1  0  0  0
 66 67  1  0  0  0
 66 69  1  0  0  0
 67 68  1  0  0  0
 67 75  2  0  0  0
 69 70  1  0  0  0
 70 71  4  0  0  0
 70 72  4  0  0  0
 71 73  4  0  0  0
 72 74  4  0  0  0
 73 74  4  0  0  0
  1 76  1  0  0  0
  1 77  1  0  0  0
  1 78  1  0  0  0
  2 79  1  0  0  0
  5 80  1  0  0  0
  5 81  1  0  0  0
  6 82  1  0  0  0
  6 83  1  0  0  0
  7 84  1  0  0  0
  7 85  1  0  0  0
  8 86  1  0  0  0
  8 87  1  0  0  0
  9 88  1  0  0  0
  9 89  1  0  0  0
  9 90  1  0  0  0
 10 91  1  0  0  0
 11 92  1  0  0  0
 11 93  1  0  0  0
 14 94  1  0  0  0
 15 95  1  0  0  0
 18 96  1  0  0  0
 18 97  1  0  0  0
 21 98  1  0  0  0
 21 99  1  0  0  0
 22100  1  0  0  0
 23101  1  0  0  0
 26102  1  0  0  0
 26103  1  0  0  0
 28104  1  0  0  0
 29105  1  0  0  0
 30106  1  0  0  0
 31107  1  0  0  0
 33108  1  0  0  0
 34109  1  0  0  0
 35110  1  0  0  0
 38111  1  0  0  0
 39112  1  0  0  0
 39113  1  0  0  0
 39114  1  0  0  0
 40115  1  0  0  0
 40116  1  0  0  0
 40117  1  0  0  0
 41118  1  0  0  0
 42119  1  0  0  0
 45120  1  0  0  0
 46121  1  0  0  0
 46122  1  0  0  0
 46123  1  0  0  0
 47124  1  0  0  0
 47125  1  0  0  0
 47126  1  0  0  0
 48127  1  0  0  0
 49128  1  0  0  0
 52129  1  0  0  0
 53130  1  0  0  0
 54131  1  0  0  0
 54132  1  0  0  0
 54133  1  0  0  0
 55134  1  0  0  0
 56135  1  0  0  0
 57136  1  0  0  0
 57137  1  0  0  0
 62138  1  0  0  0
 63139  1  0  0  0
 65140  1  0  0  0
 66141  1  0  0  0
 68142  1  0  0  0
 69143  1  0  0  0
 69144  1  0  0  0
 72145  1  0  0  0
 73146  1  0  0  0
M  END
$$$$
