4jmh_ligand
  -I-interpret- 

150154  0  0  0  0  0  0  0  0999 V2000
  -41.5380  -19.3810    3.1860 N   0  3  0  0  0
  -41.3240  -20.6890    3.8030 C   0  0  0  0  0
  -40.5750  -21.7330    2.9450 C   0  0  0  0  0
  -40.2420  -22.8040    3.4470 O   0  0  0  0  0
  -42.6360  -21.2700    4.3750 C   0  0  0  0  0
  -43.7380  -21.4170    3.3670 C   0  0  0  0  0
  -43.5360  -21.9330    2.1030 N   0  0  0  0  0
  -45.0590  -21.1260    3.4480 C   0  0  0  0  0
  -44.6830  -21.9440    1.4470 C   0  0  0  0  0
  -45.6230  -21.4580    2.2380 N   0  0  0  0  0
  -40.2900  -21.4320    1.6790 N   0  0  0  0  0
  -39.4780  -22.3420    0.8470 C   0  0  0  0  0
  -38.0420  -21.8350    0.6330 C   0  0  0  0  0
  -37.8350  -20.6570    0.3190 O   0  0  0  0  0
  -40.1400  -22.5920   -0.5100 C   0  0  0  0  0
  -40.8920  -23.9010   -0.6000 C   0  0  0  0  0
  -41.1340  -24.3300   -2.0340 C   0  0  0  0  0
  -41.3120  -23.4910   -2.9210 O   0  0  0  0  0
  -41.1270  -25.6450   -2.2740 N   0  0  0  0  0
  -37.0620  -22.7320    0.7800 N   0  0  0  0  0
  -35.6400  -22.3560    0.7460 C   0  0  0  0  0
  -34.8230  -23.0450   -0.3450 C   0  0  0  0  0
  -34.9930  -24.2430   -0.5780 O   0  0  0  0  0
  -34.9650  -22.6770    2.0870 C   0  0  0  0  0
  -35.5870  -21.9460    3.2510 C   0  0  0  0  0
  -35.1780  -20.6520    3.5880 C   0  0  0  0  0
  -36.5950  -22.5410    4.0060 C   0  0  0  0  0
  -35.7510  -19.9840    4.6530 C   0  0  0  0  0
  -37.1770  -21.8740    5.0680 C   0  0  0  0  0
  -36.7610  -20.5940    5.3810 C   0  0  0  0  0
  -37.3160  -19.9980    6.3980 O   0  0  0  0  0
  -37.7900  -18.4510    6.4300 P   0  0  0  0  0
  -36.8830  -17.7390    7.3520 O   0  0  0  0  0
  -39.2300  -18.4370    6.9850 O   0  0  0  0  0
  -37.7590  -17.7610    5.0490 O   0  0  0  0  0
  -33.9090  -22.2950   -0.9610 N   0  0  0  0  0
  -33.0540  -22.7860   -2.0410 C   0  0  0  0  0
  -32.2610  -24.0590   -1.7200 C   0  0  0  0  0
  -31.9660  -24.8290   -2.6420 O   0  0  0  0  0
  -32.0870  -21.6600   -2.3970 C   0  0  0  0  0
  -31.0720  -21.9390   -3.5040 C   0  0  0  0  0
  -31.3410  -21.6120   -4.8300 C   0  0  0  0  0
  -29.8190  -22.4560   -3.2080 C   0  0  0  0  0
  -30.4070  -21.8330   -5.8260 C   0  0  0  0  0
  -28.8780  -22.6740   -4.1880 C   0  0  0  0  0
  -29.1750  -22.3630   -5.5020 C   0  0  0  0  0
  -28.2730  -22.5650   -6.4300 O   0  0  0  0  0
  -27.7570  -24.0680   -6.7400 P   0  0  0  0  0
  -26.9790  -24.0180   -7.9990 O   0  0  0  0  0
  -29.0210  -24.9140   -6.8510 O   0  0  0  0  0
  -26.8390  -24.5860   -5.6010 O   0  0  0  0  0
  -31.9200  -24.2700   -0.4450 N   0  0  0  0  0
  -31.1150  -25.4230   -0.0260 C   0  0  0  0  0
  -31.9010  -26.4270    0.8090 C   0  0  0  0  0
  -31.3140  -27.1550    1.6100 O   0  0  0  0  0
  -29.8730  -24.9690    0.7510 C   0  0  0  0  0
  -30.2170  -24.3840    2.1120 C   0  0  0  0  0
  -31.3070  -23.8420    2.3040 O   0  0  0  0  0
  -29.2880  -24.5050    3.0740 N   0  0  0  0  0
  -33.2200  -26.4650    0.6260 N   0  0  0  0  0
  -34.0810  -27.4320    1.3230 C   0  0  0  0  0
  -33.7580  -28.8890    0.9620 C   0  0  0  0  0
  -33.0190  -29.1560    0.0160 O   0  0  0  0  0
  -35.5560  -27.1520    1.0090 C   0  0  0  0  0
  -36.1870  -26.1380    1.9610 C   0  0  0  0  0
  -35.8280  -26.1240    3.1580 O   0  0  0  0  0
  -37.0540  -25.3640    1.5110 O   0  0  0  0  0
  -34.3200  -29.8250    1.7260 N   0  0  0  0  0
  -34.2760  -31.2470    1.3880 C   0  0  0  0  0
  -35.5540  -31.6430    0.6890 C   0  0  0  0  0
  -36.5520  -30.9270    0.7580 O   0  0  0  0  0
  -34.1810  -32.1080    2.6440 C   0  0  0  0  0
  -33.0240  -31.7740    3.5160 C   0  0  0  0  0
  -31.7350  -32.0150    3.0860 C   0  0  0  0  0
  -33.2250  -31.2050    4.7700 C   0  0  0  0  0
  -30.6620  -31.6850    3.8920 C   0  0  0  0  0
  -32.1630  -30.8770    5.5790 C   0  0  0  0  0
  -30.8810  -31.1170    5.1430 C   0  0  0  0  0
  -35.5320  -32.7940    0.0080 N   0  0  0  0  0
  -36.8080  -33.4410   -0.3030 C   0  0  0  0  0
  -37.5030  -33.7960    1.0010 C   0  0  0  0  0
  -36.7920  -34.2850    1.8900 O   0  0  0  0  0
  -36.3900  -34.7300   -1.0320 C   0  0  0  0  0
  -34.9170  -34.8920   -0.7840 C   0  0  0  0  0
  -34.3790  -33.5000   -0.5790 C   0  0  0  0  0
  -38.7368  -33.6033    1.1691 O   0  0  0  0  0
  -40.6528  -19.0298    2.8207 H   0  0  0  0  0
  -42.2097  -19.4718    2.4237 H   0  0  0  0  0
  -41.9003  -18.7321    3.8846 H   0  0  0  0  0
  -40.6355  -20.4772    4.6210 H   0  0  0  0  0
  -42.9890  -20.5750    5.1368 H   0  0  0  0  0
  -42.4083  -22.2682    4.7489 H   0  0  0  0  0
  -45.5776  -20.7073    4.3104 H   0  0  0  0  0
  -44.8290  -22.2949    0.4254 H   0  0  0  0  0
  -40.6377  -20.5606    1.2788 H   0  0  0  0  0
  -39.4196  -23.2792    1.4005 H   0  0  0  0  0
  -39.3449  -22.6256   -1.2548 H   0  0  0  0  0
  -40.8646  -21.7930   -0.6668 H   0  0  0  0  0
  -41.8612  -23.7673   -0.1195 H   0  0  0  0  0
  -40.2908  -24.6698   -0.1145 H   0  0  0  0  0
  -41.2728  -25.9911   -3.2223 H   0  0  0  0  0
  -40.9758  -26.3023   -1.5088 H   0  0  0  0  0
  -37.3087  -23.7117    0.9207 H   0  0  0  0  0
  -35.6495  -21.2870    0.5333 H   0  0  0  0  0
  -33.9232  -22.3641    2.0173 H   0  0  0  0  0
  -35.0782  -23.7459    2.2679 H   0  0  0  0  0
  -34.3978  -20.1645    3.0035 H   0  0  0  0  0
  -36.9300  -23.5476    3.7558 H   0  0  0  0  0
  -35.4110  -18.9832    4.9193 H   0  0  0  0  0
  -37.9594  -22.3550    5.6550 H   0  0  0  0  0
  -39.8102  -18.9022    6.3780 H   0  0  0  0  0
  -38.3484  -18.2230    4.4484 H   0  0  0  0  0
  -33.8001  -21.3257   -0.6627 H   0  0  0  0  0
  -33.7078  -23.0673   -2.8666 H   0  0  0  0  0
  -31.5011  -21.4760   -1.4965 H   0  0  0  0  0
  -32.7066  -20.8408   -2.7619 H   0  0  0  0  0
  -32.3051  -21.1739   -5.0881 H   0  0  0  0  0
  -29.5739  -22.6955   -2.1733 H   0  0  0  0  0
  -30.6431  -21.5896   -6.8619 H   0  0  0  0  0
  -27.9039  -23.0895   -3.9298 H   0  0  0  0  0
  -29.4824  -24.9099   -6.0092 H   0  0  0  0  0
  -27.3371  -24.6211   -4.7811 H   0  0  0  0  0
  -32.2309  -23.6048    0.2630 H   0  0  0  0  0
  -30.8114  -25.9277   -0.9432 H   0  0  0  0  0
  -29.3772  -24.1931    0.1677 H   0  0  0  0  0
  -29.2396  -25.8415    0.9110 H   0  0  0  0  0
  -29.4714  -24.1405    4.0088 H   0  0  0  0  0
  -28.3990  -24.9615    2.8699 H   0  0  0  0  0
  -33.6472  -25.8008   -0.0195 H   0  0  0  0  0
  -33.8878  -27.3052    2.3882 H   0  0  0  0  0
  -36.1015  -28.0898    1.1137 H   0  0  0  0  0
  -35.6083  -26.7389    0.0017 H   0  0  0  0  0
  -35.1550  -26.7944    3.2969 H   0  0  0  0  0
  -34.7994  -29.5385    2.5795 H   0  0  0  0  0
  -33.4031  -31.4033    0.7542 H   0  0  0  0  0
  -34.0559  -33.1413    2.3204 H   0  0  0  0  0
  -35.0864  -31.9346    3.2256 H   0  0  0  0  0
  -31.5629  -32.4664    2.1089 H   0  0  0  0  0
  -34.2411  -31.0163    5.1164 H   0  0  0  0  0
  -29.6444  -31.8697    3.5477 H   0  0  0  0  0
  -32.3357  -30.4303    6.5581 H   0  0  0  0  0
  -30.0339  -30.8614    5.7795 H   0  0  0  0  0
  -37.4841  -32.8206   -0.8912 H   0  0  0  0  0
  -36.6044  -34.6657   -2.0988 H   0  0  0  0  0
  -36.9481  -35.5899   -0.6616 H   0  0  0  0  0
  -34.4262  -35.3871   -1.6219 H   0  0  0  0  0
  -34.7285  -35.5217    0.0855 H   0  0  0  0  0
  -33.4942  -33.4741    0.0570 H   0  0  0  0  0
  -34.0219  -33.0407   -1.5008 H   0  0  0  0  0
  -39.1111  -33.2199    0.3725 H   0  0  0  0  0
  1  2  1  0  0  0
  2  3  1  0  0  0
  2  5  1  0  0  0
  3  4  2  0  0  0
  3 11  1  0  0  0
  5  6  1  0  0  0
  6  7  4  0  0  0
  6  8  4  0  0  0
  7  9  4  0  0  0
  8 10  4  0  0  0
  9 10  4  0  0  0
 11 12  1  0  0  0
 12 13  1  0  0  0
 12 15  1  0  0  0
 13 14  2  0  0  0
 13 20  1  0  0  0
 15 16  1  0  0  0
 16 17  1  0  0  0
 17 18  2  0  0  0
 17 19  1  0  0  0
 20 21  1  0  0  0
 21 22  1  0  0  0
 21 24  1  0  0  0
 22 23  2  0  0  0
 22 36  1  0  0  0
 24 25  1  0  0  0
 25 26  4  0  0  0
 25 27  4  0  0  0
 26 28  4  0  0  0
 27 29  4  0  0  0
 28 30  4  0  0  0
 29 30  4  0  0  0
 30 31  1  0  0  0
 31 32  1  0  0  0
 32 33  2  0  0  0
 32 34  1  0  0  0
 32 35  1  0  0  0
 36 37  1  0  0  0
 37 38  1  0  0  0
 37 40  1  0  0  0
 38 39  2  0  0  0
 38 52  1  0  0  0
 40 41  1  0  0  0
 41 42  4  0  0  0
 41 43  4  0  0  0
 42 44  4  0  0  0
 43 45  4  0  0  0
 44 46  4  0  0  0
 45 46  4  0  0  0
 46 47  1  0  0  0
 47 48  1  0  0  0
 48 49  2  0  0  0
 48 50  1  0  0  0
 48 51  1  0  0  0
 52 53  1  0  0  0
 53 54  1  0  0  0
 53 56  1  0  0  0
 54 55  2  0  0  0
 54 60  1  0  0  0
 56 57  1  0  0  0
 57 58  2  0  0  0
 57 59  1  0  0  0
 60 61  1  0  0  0
 61 62  1  0  0  0
 61 64  1  0  0  0
 62 63  2  0  0  0
 62 68  1  0  0  0
 64 65  1  0  0  0
 65 66  1  0  0  0
 65 67  2  0  0  0
 68 69  1  0  0  0
 69 70  1  0  0  0
 69 72  1  0  0  0
 70 71  2  0  0  0
 70 79  1  0  0  0
 72 73  1  0  0  0
 73 74  4  0  0  0
 73 75  4  0  0  0
 74 76  4  0  0  0
 75 77  4  0  0  0
 76 78  4  0  0  0
 77 78  4  0  0  0
 79 80  1  0  0  0
 79 85  1  0  0  0
 80 81  1  0  0  0
 80 83  1  0  0  0
 81 82  2  0  0  0
 83 84  1  0  0  0
 84 85  1  0  0  0
 81 86  1  0  0  0
  1 87  1  0  0  0
  1 88  1  0  0  0
  1 89  1  0  0  0
  2 90  1  0  0  0
  5 91  1  0  0  0
  5 92  1  0  0  0
  8 93  1  0  0  0
  9 94  1  0  0  0
 11 95  1  0  0  0
 12 96  1  0  0  0
 15 97  1  0  0  0
 15 98  1  0  0  0
 16 99  1  0  0  0
 16100  1  0  0  0
 19101  1  0  0  0
 19102  1  0  0  0
 20103  1  0  0  0
 21104  1  0  0  0
 24105  1  0  0  0
 24106  1  0  0  0
 26107  1  0  0  0
 27108  1  0  0  0
 28109  1  0  0  0
 29110  1  0  0  0
 34111  1  0  0  0
 35112  1  0  0  0
 36113  1  0  0  0
 37114  1  0  0  0
 40115  1  0  0  0
 40116  1  0  0  0
 42117  1  0  0  0
 43118  1  0  0  0
 44119  1  0  0  0
 45120  1  0  0  0
 50121  1  0  0  0
 51122  1  0  0  0
 52123  1  0  0  0
 53124  1  0  0  0
 56125  1  0  0  0
 56126  1  0  0  0
 59127  1  0  0  0
 59128  1  0  0  0
 60129  1  0  0  0
 61130  1  0  0  0
 64131  1  0  0  0
 64132  1  0  0  0
 66133  1  0  0  0
 68134  1  0  0  0
 69135  1  0  0  0
 72136  1  0  0  0
 72137  1  0  0  0
 74138  1  0  0  0
 75139  1  0  0  0
 76140  1  0  0  0
 77141  1  0  0  0
 78142  1  0  0  0
 80143  1  0  0  0
 83144  1  0  0  0
 83145  1  0  0  0
 84146  1  0  0  0
 84147  1  0  0  0
 85148  1  0  0  0
 85149  1  0  0  0
 86150  1  0  0  0
M  END
$$$$
