4jyb_ligand
  -I-interpret- 

 48 50  0  0  0  0  0  0  0  0999 V2000
   57.5550    4.2660   41.8120 P   0  0  0  0  0
   57.3150    2.9880   41.1030 O   0  0  0  0  0
   57.7160    5.4310   40.7070 O   0  0  0  0  0
   56.3140    4.6680   42.7700 O   0  0  0  0  0
   59.0190    4.0620   42.7960 N   0  0  0  0  0
   59.6810    5.3670   43.7380 P   0  0  0  0  0
   60.4750    6.2310   42.8260 O   0  0  0  0  0
   58.5830    6.2300   44.4860 O   0  0  0  0  0
   60.6870    4.7830   44.8540 O   0  0  0  0  0
   60.3340    4.5510   46.4170 P   0  0  0  0  0
   60.2130    5.8870   47.1400 O   0  0  0  0  0
   59.2430    3.5360   46.5220 O   0  0  0  0  0
   61.7250    3.8840   46.8380 O   0  0  0  0  0
   62.1620    2.7010   46.1570 C   0  0  0  0  0
   63.1590    1.9810   47.0350 C   0  0  0  0  0
   64.3400    2.7730   47.1520 O   0  0  0  0  0
   62.6280    1.7740   48.4500 C   0  0  0  0  0
   63.1350    0.5480   48.9920 O   0  0  0  0  0
   63.1880    2.9270   49.2370 C   0  0  0  0  0
   63.4320    2.6660   50.6260 O   0  0  0  0  0
   64.5100    3.1370   48.5280 C   0  0  0  0  0
   64.9500    4.5330   48.7150 N   0  0  0  0  0
   64.2680    5.6880   48.5160 C   0  0  0  0  0
   65.0540    6.7620   48.8190 N   0  0  0  0  0
   66.2510    6.2840   49.2380 C   0  0  0  0  0
   67.5220    6.8450   49.7260 C   0  0  0  0  0
   67.6890    8.0870   49.8030 O   0  0  0  0  0
   68.5050    5.9740   50.0610 N   0  0  0  0  0
   68.3330    4.6350   49.9690 C   0  0  0  0  0
   69.3140    3.7890   50.3000 N   0  0  0  0  0
   67.1860    4.0560   49.5400 N   0  0  0  0  0
   66.1530    4.8240   49.1670 C   0  0  0  0  0
   57.8726    6.2693   41.1479 H   0  0  0  0  0
   56.5072    5.4989   43.2103 H   0  0  0  0  0
   59.4849    3.1547   42.8095 H   0  0  0  0  0
   58.0763    5.6629   45.0719 H   0  0  0  0  0
   60.9955    6.4154   46.9667 H   0  0  0  0  0
   62.6277    2.9689   45.2086 H   0  0  0  0  0
   61.3095    2.0528   45.9542 H   0  0  0  0  0
   63.3536    1.0135   46.5722 H   0  0  0  0  0
   61.5394    1.7266   48.4765 H   0  0  0  0  0
   62.7949    0.4279   49.8817 H   0  0  0  0  0
   62.4930    3.7664   49.2607 H   0  0  0  0  0
   63.7863    3.4556   51.0414 H   0  0  0  0  0
   65.2977    2.5081   48.9429 H   0  0  0  0  0
   63.2383    5.7500   48.1640 H   0  0  0  0  0
   70.2098    4.1501   50.6281 H   0  0  0  0  0
   67.1088    3.0397   49.5010 H   0  0  0  0  0
  1  2  2  0  0  0
  1  3  1  0  0  0
  1  4  1  0  0  0
  1  5  1  0  0  0
  5  6  1  0  0  0
  6  7  2  0  0  0
  6  8  1  0  0  0
  6  9  1  0  0  0
  9 10  1  0  0  0
 10 11  1  0  0  0
 10 12  2  0  0  0
 10 13  1  0  0  0
 13 14  1  0  0  0
 14 15  1  0  0  0
 15 16  1  0  0  0
 15 17  1  0  0  0
 16 21  1  0  0  0
 17 18  1  0  0  0
 17 19  1  0  0  0
 19 20  1  0  0  0
 19 21  1  0  0  0
 21 22  1  0  0  0
 22 23  4  0  0  0
 22 32  4  0  0  0
 23 24  4  0  0  0
 24 25  4  0  0  0
 25 26  1  0  0  0
 25 32  4  0  0  0
 26 27  2  0  0  0
 26 28  1  0  0  0
 28 29  4  0  0  0
 29 30  2  0  0  0
 29 31  1  0  0  0
 31 32  1  0  0  0
  3 33  1  0  0  0
  4 34  1  0  0  0
  5 35  1  0  0  0
  8 36  1  0  0  0
 11 37  1  0  0  0
 14 38  1  0  0  0
 14 39  1  0  0  0
 15 40  1  0  0  0
 17 41  1  0  0  0
 18 42  1  0  0  0
 19 43  1  0  0  0
 20 44  1  0  0  0
 21 45  1  0  0  0
 23 46  1  0  0  0
 30 47  1  0  0  0
 31 48  1  0  0  0
M  END
$$$$
