4jyc_ligand
  -I-interpret- 

 42 44  0  0  0  0  0  0  0  0999 V2000
  -37.1990    0.9500   43.9240 P   0  0  0  0  0
  -38.4530    1.5810   44.4610 O   0  0  0  0  0
  -37.4390   -0.2420   43.0690 O   0  0  0  0  0
  -36.2130    1.9210   43.2740 O   0  0  0  0  0
  -36.3190    0.4940   45.2050 O   0  0  0  0  0
  -36.8260   -0.0270   46.6280 P   0  0  0  0  0
  -37.9180   -1.0510   46.4520 O   0  0  0  0  0
  -37.0920    1.1610   47.5290 O   0  0  0  0  0
  -35.5190   -0.7600   47.2340 O   0  0  0  0  0
  -34.9000   -1.8730   46.5890 C   0  0  0  0  0
  -33.9390   -2.5860   47.5340 C   0  0  0  0  0
  -32.8210   -1.7150   47.8350 O   0  0  0  0  0
  -34.6270   -2.9960   48.8290 C   0  0  0  0  0
  -34.2630   -4.3350   49.2680 O   0  0  0  0  0
  -34.1970   -1.8620   49.7380 C   0  0  0  0  0
  -34.2110   -2.1690   51.1230 O   0  0  0  0  0
  -32.7970   -1.5160   49.2450 C   0  0  0  0  0
  -32.4480   -0.1300   49.5450 N   0  0  0  0  0
  -33.1960    0.9750   49.3250 C   0  0  0  0  0
  -32.5230    2.0770   49.7300 N   0  0  0  0  0
  -31.3300    1.7010   50.2180 C   0  0  0  0  0
  -30.1450    2.3700   50.7960 C   0  0  0  0  0
  -30.0670    3.6150   50.9700 O   0  0  0  0  0
  -29.1390    1.5700   51.1570 N   0  0  0  0  0
  -29.1770    0.2170   51.0030 C   0  0  0  0  0
  -28.1240   -0.5290   51.3820 N   0  0  0  0  0
  -30.1970   -0.4540   50.4610 N   0  0  0  0  0
  -31.2900    0.2300   50.0780 C   0  0  0  0  0
  -38.2219    2.3404   45.0009 H   0  0  0  0  0
  -36.0818    2.6765   43.8516 H   0  0  0  0  0
  -36.3166    1.7267   47.5480 H   0  0  0  0  0
  -34.3392   -1.5107   45.7274 H   0  0  0  0  0
  -35.6751   -2.5754   46.2826 H   0  0  0  0  0
  -33.5877   -3.4907   47.0378 H   0  0  0  0  0
  -35.7103   -3.1031   48.7731 H   0  0  0  0  0
  -34.7241   -4.5391   50.0849 H   0  0  0  0  0
  -34.9006   -1.0317   49.6783 H   0  0  0  0  0
  -33.9268   -1.4003   51.6229 H   0  0  0  0  0
  -32.0514   -2.1393   49.7386 H   0  0  0  0  0
  -34.1938    0.9776   48.8862 H   0  0  0  0  0
  -27.3000   -0.0815   51.7834 H   0  0  0  0  0
  -30.1479   -1.4656   50.3399 H   0  0  0  0  0
  1  2  1  0  0  0
  1  3  2  0  0  0
  1  4  1  0  0  0
  1  5  1  0  0  0
  5  6  1  0  0  0
  6  7  2  0  0  0
  6  8  1  0  0  0
  6  9  1  0  0  0
  9 10  1  0  0  0
 10 11  1  0  0  0
 11 12  1  0  0  0
 11 13  1  0  0  0
 12 17  1  0  0  0
 13 14  1  0  0  0
 13 15  1  0  0  0
 15 16  1  0  0  0
 15 17  1  0  0  0
 17 18  1  0  0  0
 18 19  4  0  0  0
 18 28  4  0  0  0
 19 20  4  0  0  0
 20 21  4  0  0  0
 21 22  1  0  0  0
 21 28  4  0  0  0
 22 23  2  0  0  0
 22 24  1  0  0  0
 24 25  4  0  0  0
 25 26  2  0  0  0
 25 27  1  0  0  0
 27 28  1  0  0  0
  2 29  1  0  0  0
  4 30  1  0  0  0
  8 31  1  0  0  0
 10 32  1  0  0  0
 10 33  1  0  0  0
 11 34  1  0  0  0
 13 35  1  0  0  0
 14 36  1  0  0  0
 15 37  1  0  0  0
 16 38  1  0  0  0
 17 39  1  0  0  0
 19 40  1  0  0  0
 26 41  1  0  0  0
 27 42  1  0  0  0
M  END
$$$$
