4k10_ligand
  -I-interpret- 

 29 29  0  0  0  0  0  0  0  0999 V2000
   39.5930   67.8860   85.1560 C   0  0  0  0  0
   41.2300   65.9580   84.2890 O   0  0  0  0  0
   38.9590   66.9680   86.0450 O   0  0  0  0  0
   38.5840   68.9340   84.6820 C   0  0  0  0  0
   39.0000   66.2540   83.1650 O   0  0  0  0  0
   36.6790   69.7280   85.9770 C   0  0  0  0  0
   40.8970   68.6880   86.1450 P   0  0  0  0  0
   40.2240   66.9360   83.7250 P   0  0  0  0  0
   40.4740   70.1260   86.3620 O   0  0  0  0  0
   40.8260   67.9310   82.7600 O   0  0  0  0  0
   42.1940   68.5730   85.3700 O   0  0  0  0  0
   40.9240   67.8680   87.4150 O   0  0  0  0  0
   37.2260   68.7550   85.2250 N   0  0  0  0  0
   34.8500   70.5620   87.2570 F   0  0  0  0  0
   34.6480   68.4440   86.2370 C   0  0  0  0  0
   36.5190   67.6380   84.9540 C   0  0  0  0  0
   35.2260   67.4510   85.4520 C   0  0  0  0  0
   35.3870   69.5910   86.5010 C   0  0  0  0  0
   41.9864   66.4402   84.6310 H   0  0  0  0  0
   38.6188   67.4443   86.8059 H   0  0  0  0  0
   38.5113   68.8430   83.5982 H   0  0  0  0  0
   38.9425   69.9040   85.0264 H   0  0  0  0  0
   37.2488   70.6346   86.1810 H   0  0  0  0  0
   40.4775   70.5897   85.5214 H   0  0  0  0  0
   41.5985   68.3364   83.1606 H   0  0  0  0  0
   42.1378   69.1058   84.5734 H   0  0  0  0  0
   33.6403   68.3251   86.6351 H   0  0  0  0  0
   36.9667   66.8629   84.3319 H   0  0  0  0  0
   34.6764   66.5368   85.2277 H   0  0  0  0  0
  1  3  1  0  0  0
  4  1  1  0  0  0
  1  7  1  0  0  0
  1  8  1  0  0  0
  8  2  1  0  0  0
 13  4  1  0  0  0
  8  5  2  0  0  0
  6 13  4  0  0  0
 18  6  4  0  0  0
  7  9  1  0  0  0
  7 11  1  0  0  0
  7 12  2  0  0  0
  8 10  1  0  0  0
 13 16  4  0  0  0
 18 14  1  0  0  0
 15 17  4  0  0  0
 15 18  4  0  0  0
 16 17  4  0  0  0
  2 19  1  0  0  0
  3 20  1  0  0  0
  4 21  1  0  0  0
  4 22  1  0  0  0
  6 23  1  0  0  0
  9 24  1  0  0  0
 10 25  1  0  0  0
 11 26  1  0  0  0
 15 27  1  0  0  0
 16 28  1  0  0  0
 17 29  1  0  0  0
M  END
$$$$
