4kv9_ligand
  -I-interpret- 

 42 44  0  0  0  0  0  0  0  0999 V2000
   -3.5460  -18.8740   20.7690 P   0  0  0  0  0
   -4.5910  -19.9390   20.6760 O   0  0  0  0  0
   -2.6690  -18.8510   19.5090 O   0  0  0  0  0
   -4.1050  -17.4830   20.8810 O   0  0  0  0  0
   -2.5940  -19.0620   22.0540 O   0  0  0  0  0
   -2.3090  -20.3890   22.9320 P   0  0  0  0  0
   -3.5130  -20.7250   23.7900 O   0  0  0  0  0
   -1.8820  -21.5520   22.0870 O   0  0  0  0  0
   -1.1680  -19.8050   23.8880 O   0  0  0  0  0
    0.1320  -19.5180   23.3860 C   0  0  0  0  0
    1.1280  -19.6020   24.5420 C   0  0  0  0  0
    0.6520  -18.7860   25.6260 O   0  0  0  0  0
    1.2160  -21.0210   25.0780 C   0  0  0  0  0
    2.5670  -21.2740   25.4670 O   0  0  0  0  0
    0.3920  -20.9620   26.3440 C   0  0  0  0  0
    0.8210  -21.9290   27.3040 O   0  0  0  0  0
    0.6460  -19.5510   26.8230 C   0  0  0  0  0
   -0.4760  -19.0750   27.6540 N   0  0  0  0  0
   -1.7690  -19.4160   27.5100 C   0  0  0  0  0
   -2.5350  -18.7500   28.4320 N   0  0  0  0  0
   -1.7190  -17.9640   29.1530 C   0  0  0  0  0
   -1.8600  -17.0190   30.2910 C   0  0  0  0  0
   -2.9640  -16.7680   30.8010 O   0  0  0  0  0
   -0.7560  -16.4150   30.7510 N   0  0  0  0  0
    0.4650  -16.6380   30.1880 C   0  0  0  0  0
    1.5380  -15.9920   30.7070 N   0  0  0  0  0
    0.6700  -17.5000   29.1680 N   0  0  0  0  0
   -0.3620  -18.1760   28.6170 C   0  0  0  0  0
   -2.0076  -18.1603   19.5934 H   0  0  0  0  0
   -3.3830  -16.8527   20.9365 H   0  0  0  0  0
   -3.7549  -19.9581   24.3143 H   0  0  0  0  0
    0.1505  -18.5188   22.9510 H   0  0  0  0  0
    0.3990  -20.2375   22.6119 H   0  0  0  0  0
    2.1003  -19.2746   24.1738 H   0  0  0  0  0
    0.8913  -21.7749   24.3609 H   0  0  0  0  0
    2.6384  -22.1684   25.8083 H   0  0  0  0  0
   -0.6625  -21.1883   26.1864 H   0  0  0  0  0
    0.2757  -21.8606   28.0911 H   0  0  0  0  0
    1.5601  -19.4795   27.4125 H   0  0  0  0  0
   -2.1517  -20.1183   26.7695 H   0  0  0  0  0
    1.4187  -15.3590   31.4979 H   0  0  0  0  0
    1.6144  -17.6420   28.8099 H   0  0  0  0  0
  1  2  2  0  0  0
  1  3  1  0  0  0
  1  4  1  0  0  0
  1  5  1  0  0  0
  5  6  1  0  0  0
  6  7  1  0  0  0
  6  8  2  0  0  0
  6  9  1  0  0  0
  9 10  1  0  0  0
 10 11  1  0  0  0
 11 12  1  0  0  0
 11 13  1  0  0  0
 12 17  1  0  0  0
 13 14  1  0  0  0
 13 15  1  0  0  0
 15 16  1  0  0  0
 15 17  1  0  0  0
 17 18  1  0  0  0
 18 19  4  0  0  0
 18 28  4  0  0  0
 19 20  4  0  0  0
 20 21  4  0  0  0
 21 22  1  0  0  0
 21 28  4  0  0  0
 22 23  2  0  0  0
 22 24  1  0  0  0
 24 25  4  0  0  0
 25 26  2  0  0  0
 25 27  1  0  0  0
 27 28  1  0  0  0
  3 29  1  0  0  0
  4 30  1  0  0  0
  7 31  1  0  0  0
 10 32  1  0  0  0
 10 33  1  0  0  0
 11 34  1  0  0  0
 13 35  1  0  0  0
 14 36  1  0  0  0
 15 37  1  0  0  0
 16 38  1  0  0  0
 17 39  1  0  0  0
 19 40  1  0  0  0
 26 41  1  0  0  0
 27 42  1  0  0  0
M  END
$$$$
