4li0_ligand
  -I-interpret- 

 42 44  0  0  0  0  0  0  0  0999 V2000
   23.8160   40.2330   42.8690 P   0  0  0  0  0
   24.6730   41.4660   42.9880 O   0  0  0  0  0
   24.6210   39.0320   42.4480 O   0  0  0  0  0
   22.8180   39.9250   43.9490 O   0  0  0  0  0
   22.8500   40.5970   41.6420 O   0  0  0  0  0
   21.5400   41.4980   41.8550 P   0  0  0  0  0
   20.5020   40.5600   42.4350 O   0  0  0  0  0
   22.0170   42.7200   42.6040 O   0  0  0  0  0
   21.1190   41.9700   40.3560 O   0  0  0  0  0
   21.4670   43.2690   39.8490 C   0  0  0  0  0
   20.5500   43.6960   38.7110 C   0  0  0  0  0
   20.1290   42.5530   37.9640 O   0  0  0  0  0
   19.2650   44.3460   39.1870 C   0  0  0  0  0
   18.9020   45.3710   38.2670 O   0  0  0  0  0
   18.2460   43.2320   39.1300 C   0  0  0  0  0
   16.8900   43.6550   39.0130 O   0  0  0  0  0
   18.6930   42.5250   37.8710 C   0  0  0  0  0
   18.1830   41.1410   37.7910 N   0  0  0  0  0
   18.3200   40.2430   38.7750 C   0  0  0  0  0
   17.7890   39.0520   38.4280 N   0  0  0  0  0
   17.3080   39.1850   37.2000 C   0  0  0  0  0
   16.6240   38.2690   36.2830 C   0  0  0  0  0
   16.3810   37.0940   36.6200 O   0  0  0  0  0
   16.2770   38.7570   35.0790 N   0  0  0  0  0
   16.5460   40.0400   34.7290 C   0  0  0  0  0
   16.1370   40.4030   33.5030 N   0  0  0  0  0
   17.1800   40.9420   35.5310 N   0  0  0  0  0
   17.5690   40.5640   36.7650 C   0  0  0  0  0
   25.2552   41.5244   42.2269 H   0  0  0  0  0
   25.2388   39.2878   41.7592 H   0  0  0  0  0
   20.3323   39.8485   41.8132 H   0  0  0  0  0
   22.4877   43.2263   39.4689 H   0  0  0  0  0
   21.3667   43.9912   40.6592 H   0  0  0  0  0
   21.1364   44.4043   38.1258 H   0  0  0  0  0
   19.3466   44.7899   40.1792 H   0  0  0  0  0
   18.0889   45.7890   38.5598 H   0  0  0  0  0
   18.2264   42.6409   40.0456 H   0  0  0  0  0
   16.3172   42.8852   38.9841 H   0  0  0  0  0
   18.3119   43.0055   36.9699 H   0  0  0  0  0
   18.7987   40.4477   39.7326 H   0  0  0  0  0
   15.6590   39.7293   32.9046 H   0  0  0  0  0
   17.3577   41.8908   35.2014 H   0  0  0  0  0
  1  2  1  0  0  0
  1  3  1  0  0  0
  1  4  2  0  0  0
  1  5  1  0  0  0
  5  6  1  0  0  0
  6  7  1  0  0  0
  6  8  2  0  0  0
  6  9  1  0  0  0
  9 10  1  0  0  0
 10 11  1  0  0  0
 11 12  1  0  0  0
 11 13  1  0  0  0
 12 17  1  0  0  0
 13 14  1  0  0  0
 13 15  1  0  0  0
 15 16  1  0  0  0
 15 17  1  0  0  0
 17 18  1  0  0  0
 18 19  4  0  0  0
 18 28  4  0  0  0
 19 20  4  0  0  0
 20 21  4  0  0  0
 21 22  1  0  0  0
 21 28  4  0  0  0
 22 23  2  0  0  0
 22 24  1  0  0  0
 24 25  4  0  0  0
 25 26  2  0  0  0
 25 27  1  0  0  0
 27 28  1  0  0  0
  2 29  1  0  0  0
  3 30  1  0  0  0
  7 31  1  0  0  0
 10 32  1  0  0  0
 10 33  1  0  0  0
 11 34  1  0  0  0
 13 35  1  0  0  0
 14 36  1  0  0  0
 15 37  1  0  0  0
 16 38  1  0  0  0
 17 39  1  0  0  0
 19 40  1  0  0  0
 26 41  1  0  0  0
 27 42  1  0  0  0
M  END
$$$$
