4lkm_ligand
  -I-interpret- 

149151  0  0  0  0  0  0  0  0999 V2000
   41.1380    9.0930   23.9080 C   0  0  0  0  0
   40.7350    8.3640   23.0000 O   0  0  0  0  0
   41.2410   10.5920   23.7110 C   0  0  0  0  0
   41.4950    8.6050   25.1100 N   0  0  0  0  0
   41.4650    7.1850   25.4910 C   0  0  0  0  0
   40.0730    6.5470   25.5990 C   0  0  0  0  0
   39.8900    5.3810   25.2410 O   0  0  0  0  0
   42.2020    7.1750   26.8260 C   0  0  0  0  0
   41.8560    8.5120   27.4030 C   0  0  0  0  0
   42.0280    9.4270   26.2100 C   0  0  0  0  0
   39.1090    7.2990   26.1250 N   0  0  0  0  0
   37.7330    6.8190   26.2710 C   0  0  0  0  0
   36.8670    7.6710   25.3570 C   0  0  0  0  0
   37.0620    8.8810   25.2650 O   0  0  0  0  0
   37.2550    6.9710   27.7140 C   0  0  0  0  0
   38.0030    6.1640   28.7760 C   0  0  0  0  0
   37.4930    6.5480   30.1580 C   0  0  0  0  0
   37.8020    4.6740   28.5220 C   0  0  0  0  0
   35.9060    7.0470   24.6910 N   0  0  0  0  0
   35.0560    7.7780   23.7640 C   0  0  0  0  0
   33.7420    7.0580   23.4980 C   0  0  0  0  0
   33.5640    5.8980   23.8730 O   0  0  0  0  0
   35.8080    7.9460   22.4480 C   0  0  0  0  0
   36.3510    6.6580   21.9170 C   0  0  0  0  0
   35.5400    5.6050   21.5540 N   0  0  0  0  0
   37.6240    6.2200   21.7660 C   0  0  0  0  0
   36.2870    4.5740   21.2040 C   0  0  0  0  0
   37.5560    4.9200   21.3240 N   0  0  0  0  0
   32.8280    7.7560   22.8350 N   0  0  0  0  0
   31.5380    7.1830   22.4930 C   0  0  0  0  0
   31.7290    6.1880   21.3460 C   0  0  0  0  0
   32.8550    5.9050   20.9360 O   0  0  0  0  0
   30.5630    8.2920   22.0800 C   0  0  0  0  0
   31.0780    9.0670   21.0070 O   0  0  0  0  0
   30.6240    5.6460   20.8140 N   0  0  0  0  0
   30.7160    4.4910   19.9250 C   0  0  0  0  0
   29.3120    3.9070   19.5930 C   0  0  0  0  0
   29.4150    2.7060   18.6760 C   0  0  0  0  0
   28.8050    3.5380   20.8990 O   0  0  0  0  0
   27.5320    4.2710   21.5600 P   0  0  0  0  0
   26.3530    4.2980   20.6810 O   0  0  0  0  0
   28.0340    5.6570   21.9100 O   0  0  0  0  0
   27.3280    3.4990   22.8380 O   0  0  0  0  0
   31.3940    4.9360   18.5950 C   0  0  0  0  0
   31.0560    5.9470   18.0340 O   0  0  0  0  0
   32.3550    4.1480   18.1230 N   0  0  0  0  0
   33.0920    4.5180   16.9120 C   0  0  0  0  0
   32.3160    4.1590   15.6550 C   0  0  0  0  0
   31.4960    3.2430   15.6650 O   0  0  0  0  0
   34.4500    3.8140   16.8760 C   0  0  0  0  0
   35.3450    4.1520   18.0430 C   0  0  0  0  0
   37.0270    3.5560   17.8250 S   0  0  0  0  0
   37.7940    5.0330   17.2020 C   0  0  0  0  0
   32.5730    4.8700   14.5570 N   0  0  0  0  0
   47.6360   17.8900   21.4080 C   0  0  0  0  0
   47.2820   18.5240   20.0690 C   0  0  0  0  0
   48.3360   19.5170   19.6000 C   0  0  0  0  0
   48.5580   20.5990   20.6320 C   0  0  0  0  0
   48.9420   19.9870   21.9620 C   0  0  0  0  0
   47.8890   18.9910   22.4300 C   0  0  0  0  0
   46.5610   16.9100   21.8820 C   0  0  0  0  0
   45.5980   16.4120   20.8110 C   0  0  0  0  0
   46.2670   15.7480   19.6290 C   0  0  0  0  0
   45.2670   15.1090   18.6740 C   0  0  0  0  0
   44.5290   13.9440   19.2910 C   0  0  0  0  0
   45.1380   13.0160   19.8100 O   0  0  0  0  0
   42.3520   12.8250   19.4910 C   0  0  0  0  0
   43.2040   13.9860   19.2310 N   0  0  0  0  0
   41.3240   13.0860   20.5830 C   0  0  0  0  0
   41.6840   12.6510   21.9990 C   0  0  0  0  0
   41.6200   11.1400   22.1950 C   0  0  0  0  0
   42.0596   10.9166   24.3533 H   0  0  0  0  0
   40.2470   10.9849   23.9248 H   0  0  0  0  0
   41.9208    6.5705   24.7146 H   0  0  0  0  0
   43.2760    7.0238   26.7176 H   0  0  0  0  0
   41.9068    6.3454   27.4684 H   0  0  0  0  0
   42.4808    8.7893   28.2520 H   0  0  0  0  0
   40.8553    8.5493   27.8335 H   0  0  0  0  0
   41.5140   10.3817   26.3221 H   0  0  0  0  0
   43.0603    9.7397   26.0526 H   0  0  0  0  0
   39.3366    8.2429   26.4375 H   0  0  0  0  0
   37.6720    5.7624   26.0103 H   0  0  0  0  0
   36.2278    6.6066   27.7292 H   0  0  0  0  0
   37.4080    8.0191   27.9714 H   0  0  0  0  0
   39.0693    6.3840   28.7238 H   0  0  0  0  0
   37.6620    7.6120   30.3235 H   0  0  0  0  0
   36.4262    6.3338   30.2226 H   0  0  0  0  0
   38.0269    5.9721   30.9139 H   0  0  0  0  0
   36.7388    4.4388   28.5697 H   0  0  0  0  0
   38.1877    4.4198   27.5347 H   0  0  0  0  0
   38.3364    4.1021   29.2806 H   0  0  0  0  0
   35.7613    6.0468   24.8294 H   0  0  0  0  0
   34.8174    8.7432   24.2107 H   0  0  0  0  0
   36.6514    8.6120   22.6301 H   0  0  0  0  0
   35.1063    8.3390   21.7123 H   0  0  0  0  0
   38.5321    6.7913   21.9588 H   0  0  0  0  0
   35.9191    3.6030   20.8726 H   0  0  0  0  0
   33.0362    8.7158   22.5597 H   0  0  0  0  0
   31.1216    6.6667   23.3579 H   0  0  0  0  0
   30.4060    8.9490   22.9354 H   0  0  0  0  0
   29.6317    7.8285   21.7545 H   0  0  0  0  0
   30.4447    9.7499   20.7742 H   0  0  0  0  0
   29.7106    6.0441   21.0322 H   0  0  0  0  0
   31.2986    3.7198   20.4290 H   0  0  0  0  0
   28.6664    4.6071   19.0627 H   0  0  0  0  0
   29.8960    3.0024   17.7438 H   0  0  0  0  0
   30.0070    1.9299   19.1610 H   0  0  0  0  0
   28.4159    2.3245   18.4655 H   0  0  0  0  0
   28.8009    5.5832   22.4827 H   0  0  0  0  0
   28.1345    3.5246   23.3582 H   0  0  0  0  0
   32.5809    3.2793   18.6075 H   0  0  0  0  0
   33.2354    5.5982   16.9391 H   0  0  0  0  0
   34.9608    4.1410   15.9703 H   0  0  0  0  0
   34.2602    2.7413   16.9131 H   0  0  0  0  0
   34.9327    3.6717   18.9304 H   0  0  0  0  0
   35.3840    5.2378   18.1307 H   0  0  0  0  0
   37.3045    5.3318   16.2751 H   0  0  0  0  0
   37.6967    5.8301   17.9391 H   0  0  0  0  0
   38.8496    4.8399   17.0110 H   0  0  0  0  0
   32.0824    4.6609   13.6875 H   0  0  0  0  0
   33.2603    5.6231   14.5863 H   0  0  0  0  0
   48.5451   17.3008   21.2878 H   0  0  0  0  0
   46.3416   19.0620   20.1889 H   0  0  0  0  0
   47.2143   17.7286   19.3268 H   0  0  0  0  0
   47.9926   19.9808   18.6753 H   0  0  0  0  0
   49.2741   18.9841   19.4447 H   0  0  0  0  0
   47.6361   21.1673   20.7552 H   0  0  0  0  0
   49.3635   21.2516   20.2952 H   0  0  0  0  0
   49.0235   20.7829   22.7023 H   0  0  0  0  0
   49.8906   19.4631   21.8446 H   0  0  0  0  0
   48.2502   18.5240   23.3463 H   0  0  0  0  0
   46.9552   19.5330   22.5799 H   0  0  0  0  0
   45.9567   17.4465   22.6136 H   0  0  0  0  0
   47.0882   16.0315   22.2542 H   0  0  0  0  0
   45.0659   17.2834   20.4293 H   0  0  0  0  0
   44.9589   15.6632   21.2789 H   0  0  0  0  0
   46.9176   14.9608   20.0100 H   0  0  0  0  0
   46.8143   16.5137   19.0792 H   0  0  0  0  0
   45.8206   14.7347   17.8129 H   0  0  0  0  0
   44.5303   15.8665   18.4066 H   0  0  0  0  0
   42.9918   12.0067   19.8213 H   0  0  0  0  0
   41.8136   12.5916   18.5724 H   0  0  0  0  0
   42.7574   14.8713   18.9918 H   0  0  0  0  0
   40.4463   12.5010   20.3084 H   0  0  0  0  0
   41.2083   14.1689   20.6271 H   0  0  0  0  0
   40.9620   13.1040   22.6784 H   0  0  0  0  0
   42.7092   12.9669   22.1920 H   0  0  0  0  0
   40.8191   10.7898   21.5438 H   0  0  0  0  0
   42.6246   10.7710   21.9884 H   0  0  0  0  0
  1  2  2  0  0  0
  3  1  1  0  0  0
  1  4  1  0  0  0
 71  3  1  0  0  0
  4  5  1  0  0  0
  4 10  1  0  0  0
  5  6  1  0  0  0
  5  8  1  0  0  0
  6  7  2  0  0  0
  6 11  1  0  0  0
  9  8  1  0  0  0
 10  9  1  0  0  0
 11 12  1  0  0  0
 12 13  1  0  0  0
 12 15  1  0  0  0
 13 14  2  0  0  0
 13 19  1  0  0  0
 15 16  1  0  0  0
 16 17  1  0  0  0
 16 18  1  0  0  0
 19 20  1  0  0  0
 20 21  1  0  0  0
 20 23  1  0  0  0
 21 22  2  0  0  0
 21 29  1  0  0  0
 23 24  1  0  0  0
 24 25  4  0  0  0
 24 26  4  0  0  0
 25 27  4  0  0  0
 26 28  4  0  0  0
 28 27  4  0  0  0
 29 30  1  0  0  0
 30 31  1  0  0  0
 30 33  1  0  0  0
 31 32  2  0  0  0
 31 35  1  0  0  0
 33 34  1  0  0  0
 35 36  1  0  0  0
 36 37  1  0  0  0
 36 44  1  0  0  0
 37 38  1  0  0  0
 37 39  1  0  0  0
 39 40  1  0  0  0
 40 41  2  0  0  0
 40 42  1  0  0  0
 40 43  1  0  0  0
 44 45  2  0  0  0
 44 46  1  0  0  0
 46 47  1  0  0  0
 47 48  1  0  0  0
 47 50  1  0  0  0
 48 49  2  0  0  0
 48 54  1  0  0  0
 50 51  1  0  0  0
 51 52  1  0  0  0
 52 53  1  0  0  0
 55 56  1  0  0  0
 55 60  1  0  0  0
 61 55  1  0  0  0
 56 57  1  0  0  0
 57 58  1  0  0  0
 59 58  1  0  0  0
 60 59  1  0  0  0
 62 61  1  0  0  0
 63 62  1  0  0  0
 64 63  1  0  0  0
 65 64  1  0  0  0
 65 66  2  0  0  0
 68 65  1  0  0  0
 67 68  1  0  0  0
 69 67  1  0  0  0
 70 69  1  0  0  0
 70 71  1  0  0  0
  3 72  1  0  0  0
  3 73  1  0  0  0
  5 74  1  0  0  0
  8 75  1  0  0  0
  8 76  1  0  0  0
  9 77  1  0  0  0
  9 78  1  0  0  0
 10 79  1  0  0  0
 10 80  1  0  0  0
 11 81  1  0  0  0
 12 82  1  0  0  0
 15 83  1  0  0  0
 15 84  1  0  0  0
 16 85  1  0  0  0
 17 86  1  0  0  0
 17 87  1  0  0  0
 17 88  1  0  0  0
 18 89  1  0  0  0
 18 90  1  0  0  0
 18 91  1  0  0  0
 19 92  1  0  0  0
 20 93  1  0  0  0
 23 94  1  0  0  0
 23 95  1  0  0  0
 26 96  1  0  0  0
 27 97  1  0  0  0
 29 98  1  0  0  0
 30 99  1  0  0  0
 33100  1  0  0  0
 33101  1  0  0  0
 34102  1  0  0  0
 35103  1  0  0  0
 36104  1  0  0  0
 37105  1  0  0  0
 38106  1  0  0  0
 38107  1  0  0  0
 38108  1  0  0  0
 42109  1  0  0  0
 43110  1  0  0  0
 46111  1  0  0  0
 47112  1  0  0  0
 50113  1  0  0  0
 50114  1  0  0  0
 51115  1  0  0  0
 51116  1  0  0  0
 53117  1  0  0  0
 53118  1  0  0  0
 53119  1  0  0  0
 54120  1  0  0  0
 54121  1  0  0  0
 55122  1  0  0  0
 56123  1  0  0  0
 56124  1  0  0  0
 57125  1  0  0  0
 57126  1  0  0  0
 58127  1  0  0  0
 58128  1  0  0  0
 59129  1  0  0  0
 59130  1  0  0  0
 60131  1  0  0  0
 60132  1  0  0  0
 61133  1  0  0  0
 61134  1  0  0  0
 62135  1  0  0  0
 62136  1  0  0  0
 63137  1  0  0  0
 63138  1  0  0  0
 64139  1  0  0  0
 64140  1  0  0  0
 67141  1  0  0  0
 67142  1  0  0  0
 68143  1  0  0  0
 69144  1  0  0  0
 69145  1  0  0  0
 70146  1  0  0  0
 70147  1  0  0  0
 71148  1  0  0  0
 71149  1  0  0  0
M  END
$$$$
