4loi_ligand
  -I-interpret- 

 68 74  0  0  0  0  0  0  0  0999 V2000
   49.2200   32.7020   15.9940 O   0  0  0  0  0
   48.4280   33.6100   15.7410 C   0  0  0  0  0
   48.9710   34.7900   15.2670 N   0  0  0  0  0
   48.1240   35.8310   14.9510 C   0  0  0  0  0
   48.6480   36.9590   14.4880 N   0  0  0  0  0
   46.7940   35.6880   15.1620 N   0  0  0  0  0
   46.2810   34.5290   15.6510 C   0  0  0  0  0
   47.0890   33.5040   15.9400 C   0  0  0  0  0
   46.3250   32.5230   16.4360 N   0  0  0  0  0
   45.0490   32.9280   16.4110 C   0  0  0  0  0
   45.0340   34.1790   15.9610 N   0  0  0  0  0
   43.8120   34.9970   15.7520 C   0  0  0  0  0
   43.0640   35.0900   16.9410 O   0  0  0  0  0
   41.6550   34.7840   16.6610 C   0  0  0  0  0
   41.2190   33.4410   17.2800 C   0  0  0  0  0
   42.0600   32.3970   16.8430 O   0  0  0  0  0
   41.7180   30.8270   17.1060 P   0  0  0  0  0
   40.7890   30.4330   15.9190 O   0  0  0  0  0
   40.9330   30.7340   18.4020 O   0  0  0  0  0
   43.0660   30.1070   17.0470 O   0  0  0  0  0
   41.5420   34.7330   15.1800 C   0  0  0  0  0
   41.2700   36.0430   14.6970 O   0  0  0  0  0
   42.9110   34.3040   14.7660 C   0  0  0  0  0
   43.1900   34.7490   13.4180 O   0  0  0  0  0
   43.3630   33.6570   12.2480 P   0  0  0  0  0
   44.8430   33.1700   12.3960 O   0  0  0  0  0
   43.0470   34.2480   10.8840 O   0  0  0  0  0
   42.4080   32.3640   12.5440 O   0  0  0  0  0
   41.1940   32.3330   11.9500 C   0  0  0  0  0
   40.4290   31.1140   12.4570 C   0  0  0  0  0
   41.2410   29.9150   12.4060 O   0  0  0  0  0
   40.1300   31.3330   13.8970 C   0  0  0  0  0
   38.9420   30.6430   14.2780 O   0  0  0  0  0
   41.2430   30.7380   14.5990 C   0  0  0  0  0
   41.4910   29.5040   13.7200 C   0  0  0  0  0
   42.8730   29.0910   13.6900 N   0  0  0  0  0
   43.9350   29.8180   13.2970 C   0  0  0  0  0
   45.0480   29.0800   13.4520 N   0  0  0  0  0
   44.6860   27.8800   13.9430 C   0  0  0  0  0
   43.3340   27.8940   14.0780 C   0  0  0  0  0
   42.6690   26.8300   14.5670 N   0  0  0  0  0
   43.4120   25.6940   14.8900 C   0  0  0  0  0
   44.7820   25.6880   14.7340 N   0  0  0  0  0
   45.3950   26.7780   14.2570 C   0  0  0  0  0
   46.7310   26.7870   14.0940 N   0  0  0  0  0
   49.6580   37.0425   14.3725 H   0  0  0  0  0
   46.1666   36.4638   14.9501 H   0  0  0  0  0
   44.1805   32.3392   16.7059 H   0  0  0  0  0
   44.1319   35.9808   15.4085 H   0  0  0  0  0
   41.0037   35.5400   17.0996 H   0  0  0  0  0
   40.1967   33.2244   16.9699 H   0  0  0  0  0
   41.2829   33.5151   18.3656 H   0  0  0  0  0
   43.4610   30.2401   16.1822 H   0  0  0  0  0
   40.7551   34.0773   14.8073 H   0  0  0  0  0
   41.1951   36.0209   13.7402 H   0  0  0  0  0
   43.0394   33.2216   14.7652 H   0  0  0  0  0
   44.9737   32.8100   13.2763 H   0  0  0  0  0
   41.3137   32.2702   10.8684 H   0  0  0  0  0
   40.6420   33.2416   12.1905 H   0  0  0  0  0
   39.5410   30.9915   11.8369 H   0  0  0  0  0
   39.9895   32.3916   14.1153 H   0  0  0  0  0
   38.7681   30.7978   15.2093 H   0  0  0  0  0
   42.1490   31.3296   14.7308 H   0  0  0  0  0
   40.8737   28.6933   14.1070 H   0  0  0  0  0
   43.8988   30.8384   12.9154 H   0  0  0  0  0
   42.9062   24.8056   15.2681 H   0  0  0  0  0
   47.1955   27.6217   13.7364 H   0  0  0  0  0
   47.2789   25.9591   14.3281 H   0  0  0  0  0
  1  2  2  0  0  0
  2  3  1  0  0  0
  2  8  1  0  0  0
  3  4  4  0  0  0
  4  5  2  0  0  0
  4  6  1  0  0  0
  6  7  1  0  0  0
  7  8  4  0  0  0
  7 11  4  0  0  0
  8  9  4  0  0  0
  9 10  4  0  0  0
 10 11  4  0  0  0
 11 12  1  0  0  0
 12 13  1  0  0  0
 12 23  1  0  0  0
 13 14  1  0  0  0
 14 15  1  0  0  0
 14 21  1  0  0  0
 15 16  1  0  0  0
 16 17  1  0  0  0
 17 18  1  0  0  0
 17 19  2  0  0  0
 17 20  1  0  0  0
 18 34  1  0  0  0
 21 22  1  0  0  0
 21 23  1  0  0  0
 23 24  1  0  0  0
 24 25  1  0  0  0
 25 26  1  0  0  0
 25 27  2  0  0  0
 25 28  1  0  0  0
 28 29  1  0  0  0
 29 30  1  0  0  0
 30 31  1  0  0  0
 30 32  1  0  0  0
 31 35  1  0  0  0
 32 33  1  0  0  0
 32 34  1  0  0  0
 34 35  1  0  0  0
 35 36  1  0  0  0
 36 37  4  0  0  0
 36 40  4  0  0  0
 37 38  4  0  0  0
 38 39  4  0  0  0
 39 40  4  0  0  0
 39 44  4  0  0  0
 40 41  4  0  0  0
 41 42  4  0  0  0
 42 43  4  0  0  0
 43 44  4  0  0  0
 44 45  1  0  0  0
  5 46  1  0  0  0
  6 47  1  0  0  0
 10 48  1  0  0  0
 12 49  1  0  0  0
 14 50  1  0  0  0
 15 51  1  0  0  0
 15 52  1  0  0  0
 20 53  1  0  0  0
 21 54  1  0  0  0
 22 55  1  0  0  0
 23 56  1  0  0  0
 26 57  1  0  0  0
 29 58  1  0  0  0
 29 59  1  0  0  0
 30 60  1  0  0  0
 32 61  1  0  0  0
 33 62  1  0  0  0
 34 63  1  0  0  0
 35 64  1  0  0  0
 37 65  1  0  0  0
 42 66  1  0  0  0
 45 67  1  0  0  0
 45 68  1  0  0  0
M  END
$$$$
