4lps_ligand
  -I-interpret- 

 42 44  0  0  0  0  0  0  0  0999 V2000
   12.1290   -6.1360   -1.3140 P   0  0  0  0  0
   11.4880   -7.5010   -1.3330 O   0  0  0  0  0
   12.9230   -5.9070   -2.5750 O   0  0  0  0  0
   13.0710   -6.0140   -0.1420 O   0  0  0  0  0
   10.9910   -5.0150   -1.1590 O   0  0  0  0  0
    9.9660   -4.6240   -2.3400 P   0  0  0  0  0
   10.5580   -3.5370   -3.1990 O   0  0  0  0  0
    9.5700   -5.8200   -3.1670 O   0  0  0  0  0
    8.7310   -4.0250   -1.5190 O   0  0  0  0  0
    7.7700   -4.8900   -0.9180 C   0  0  0  0  0
    6.4770   -4.1130   -0.7210 C   0  0  0  0  0
    6.7360   -2.9360    0.0460 O   0  0  0  0  0
    5.9200   -3.6460   -2.0530 C   0  0  0  0  0
    4.4980   -3.7960   -2.0090 O   0  0  0  0  0
    6.2490   -2.1730   -2.1260 C   0  0  0  0  0
    5.2320   -1.4650   -2.8330 O   0  0  0  0  0
    6.2590   -1.7860   -0.6600 C   0  0  0  0  0
    7.1460   -0.6380   -0.3680 N   0  0  0  0  0
    8.4300   -0.4620   -0.7350 C   0  0  0  0  0
    8.9070    0.7110   -0.2480 N   0  0  0  0  0
    7.9180    1.2960    0.4580 C   0  0  0  0  0
    7.7360    2.5420    1.2400 C   0  0  0  0  0
    8.6650    3.3660    1.3600 O   0  0  0  0  0
    6.5470    2.7610    1.8160 N   0  0  0  0  0
    5.5270    1.8890    1.7020 C   0  0  0  0  0
    4.3480    2.1680    2.3070 N   0  0  0  0  0
    5.6220    0.7310    1.0050 N   0  0  0  0  0
    6.7680    0.3940    0.3780 C   0  0  0  0  0
   10.9874   -7.6295   -0.5240 H   0  0  0  0  0
   12.5853   -6.1566    0.6737 H   0  0  0  0  0
    9.1971   -6.4943   -2.5944 H   0  0  0  0  0
    8.1400   -5.2462    0.0434 H   0  0  0  0  0
    7.5917   -5.7518   -1.5611 H   0  0  0  0  0
    5.7698   -4.7742   -0.2201 H   0  0  0  0  0
    6.3232   -4.2000   -2.9007 H   0  0  0  0  0
    4.1208   -3.5063   -2.8429 H   0  0  0  0  0
    7.1787   -1.9483   -2.6488 H   0  0  0  0  0
    5.4585   -0.5328   -2.8687 H   0  0  0  0  0
    5.2566   -1.4797   -0.3610 H   0  0  0  0  0
    9.0053   -1.1638   -1.3388 H   0  0  0  0  0
    4.2404    3.0302    2.8413 H   0  0  0  0  0
    4.8172    0.1064    0.9537 H   0  0  0  0  0
  1  2  1  0  0  0
  1  3  2  0  0  0
  1  4  1  0  0  0
  1  5  1  0  0  0
  5  6  1  0  0  0
  6  7  2  0  0  0
  6  8  1  0  0  0
  6  9  1  0  0  0
  9 10  1  0  0  0
 10 11  1  0  0  0
 11 12  1  0  0  0
 11 13  1  0  0  0
 12 17  1  0  0  0
 13 14  1  0  0  0
 13 15  1  0  0  0
 15 16  1  0  0  0
 15 17  1  0  0  0
 17 18  1  0  0  0
 18 19  4  0  0  0
 18 28  4  0  0  0
 19 20  4  0  0  0
 20 21  4  0  0  0
 21 22  1  0  0  0
 21 28  4  0  0  0
 22 23  2  0  0  0
 22 24  1  0  0  0
 24 25  4  0  0  0
 25 26  2  0  0  0
 25 27  1  0  0  0
 27 28  1  0  0  0
  2 29  1  0  0  0
  4 30  1  0  0  0
  8 31  1  0  0  0
 10 32  1  0  0  0
 10 33  1  0  0  0
 11 34  1  0  0  0
 13 35  1  0  0  0
 14 36  1  0  0  0
 15 37  1  0  0  0
 16 38  1  0  0  0
 17 39  1  0  0  0
 19 40  1  0  0  0
 26 41  1  0  0  0
 27 42  1  0  0  0
M  END
$$$$
