4ngh_ligand
  -I-interpret- 

328333  0  0  0  0  0  0  0  0999 V2000
  -81.2900   77.9960  -20.9850 C   0  0  0  0  0
  -80.9770   76.7060  -21.3860 O   0  0  0  0  0
  -82.1700   78.7170  -21.9510 C   0  0  0  0  0
  -81.4790   78.3300  -19.7310 N   0  0  0  0  0
  -80.7980   77.6180  -18.6660 C   0  0  0  0  0
  -81.7610   76.5950  -18.0450 C   0  0  0  0  0
  -82.7960   76.9720  -17.4860 O   0  0  0  0  0
  -80.2770   78.6130  -17.6130 C   0  0  0  0  0
  -79.4850   77.9450  -16.5110 C   0  0  0  0  0
  -79.2200   76.7430  -16.5550 O   0  0  0  0  0
  -79.1120   78.7240  -15.5020 N   0  0  0  0  0
  -81.4160   75.3130  -18.1600 N   0  0  0  0  0
  -82.2190   74.2120  -17.6200 C   0  0  0  0  0
  -82.5330   74.4190  -16.1370 C   0  0  0  0  0
  -83.6010   74.0440  -15.6460 O   0  0  0  0  0
  -81.4450   72.9020  -17.8200 C   0  0  0  0  0
  -82.0750   71.6190  -17.3340 C   0  0  0  0  0
  -82.9230   70.8130  -18.0270 C   0  0  0  0  0
  -81.8490   70.9690  -16.0750 C   0  0  0  0  0
  -83.2630   69.7160  -17.2780 N   0  0  0  0  0
  -82.6120   69.7820  -16.0780 C   0  0  0  0  0
  -81.0780   71.2750  -14.9500 C   0  0  0  0  0
  -82.6280   68.8990  -15.0000 C   0  0  0  0  0
  -81.0890   70.3970  -13.8820 C   0  0  0  0  0
  -81.8640   69.2210  -13.9120 C   0  0  0  0  0
  -81.6020   75.0440  -15.4310 N   0  0  0  0  0
  -81.7440   75.2240  -14.0000 C   0  0  0  0  0
  -82.8110   76.2540  -13.6530 C   0  0  0  0  0
  -83.1100   76.5000  -12.4840 O   0  0  0  0  0
  -80.3920   75.5880  -13.3910 C   0  0  0  0  0
  -79.3910   74.4740  -13.4280 C   0  0  0  0  0
  -79.2850   73.5700  -12.3700 C   0  0  0  0  0
  -78.5460   74.3190  -14.5180 C   0  0  0  0  0
  -78.3420   72.5200  -12.4020 C   0  0  0  0  0
  -77.5980   73.2640  -14.5590 C   0  0  0  0  0
  -77.5050   72.3700  -13.5070 C   0  0  0  0  0
  -83.3990   76.8550  -14.6720 N   0  0  0  0  0
  -84.4140   77.8640  -14.4400 C   0  0  0  0  0
  -85.8250   77.3560  -14.6820 C   0  0  0  0  0
  -86.7990   78.0580  -14.4140 O   0  0  0  0  0
  -84.1330   79.1060  -15.2860 C   0  0  0  0  0
  -82.9860   79.9320  -14.7330 C   0  0  0  0  0
  -82.7550   79.9430  -13.5220 O   0  0  0  0  0
  -82.2550   80.6200  -15.6130 N   0  0  0  0  0
  -85.9270   76.1250  -15.1650 N   0  0  0  0  0
  -87.1980   75.5700  -15.6030 C   0  0  0  0  0
  -88.2100   75.3740  -14.4600 C   0  0  0  0  0
  -89.4000   75.6640  -14.6220 O   0  0  0  0  0
  -86.9770   74.2600  -16.3600 C   0  0  0  0  0
  -86.2160   74.5260  -17.6540 C   0  0  0  0  0
  -88.2870   73.5840  -16.6750 C   0  0  0  0  0
  -86.0240   73.2840  -18.4810 C   0  0  0  0  0
  -87.7370   74.9220  -13.3010 N   0  0  0  0  0
  -88.6550   74.5890  -12.2250 C   0  0  0  0  0
  -89.2340   75.8410  -11.6140 C   0  0  0  0  0
  -90.3180   75.8170  -11.0180 O   0  0  0  0  0
  -88.0070   73.6940  -11.1520 C   0  0  0  0  0
  -86.8280   74.3240  -10.6670 O   0  0  0  0  0
  -87.6350   72.3740  -11.7590 C   0  0  0  0  0
  -88.5120   76.9430  -11.7660 N   0  0  0  0  0
  -89.0330   78.2320  -11.3570 C   0  0  0  0  0
  -90.2450   78.6270  -12.1990 C   0  0  0  0  0
  -91.2620   79.0500  -11.6560 O   0  0  0  0  0
  -87.9530   79.2960  -11.4300 C   0  0  0  0  0
  -88.4260   80.6120  -10.8810 C   0  0  0  0  0
  -88.6190   80.7540   -9.6740 O   0  0  0  0  0
  -88.6520   81.5780  -11.7630 N   0  0  0  0  0
  -90.1340   78.4750  -13.5220 N   0  0  0  0  0
  -91.2390   78.7430  -14.4370 C   0  0  0  0  0
  -91.5600   80.2310  -14.3750 C   0  0  0  0  0
  -92.7320   80.8260  -15.1840 C   0  0  0  0  0
  -90.7350   78.4170  -15.8110 C   0  0  0  0  0
  -92.4190   77.8860  -13.9850 C   0  0  0  0  0
  -93.5590   78.3290  -13.8080 O   0  0  0  0  0
  -92.1550   76.4780  -13.7390 N   0  0  0  0  0
  -93.1790   75.5740  -13.2970 C   0  0  0  0  0
  -93.7950   75.9920  -11.9520 C   0  0  0  0  0
  -95.0010   75.9140  -11.7700 O   0  0  0  0  0
  -92.6120   74.1490  -13.1620 C   0  0  0  0  0
  -92.2770   73.4790  -14.5020 C   0  0  0  0  0
  -91.6090   72.1840  -14.3130 C   0  0  0  0  0
  -93.4840   73.3860  -15.4060 C   0  0  0  0  0
  -92.9220   76.4740  -10.8730 N   0  0  0  0  0
  -93.5520   76.8410   -9.5950 C   0  0  0  0  0
  -94.4700   78.0540   -9.7180 C   0  0  0  0  0
  -95.5520   78.1070   -9.0240 O   0  0  0  0  0
  -92.4650   77.1080   -8.5760 C   0  0  0  0  0
  -92.8480   77.7320   -7.2180 C   0  0  0  0  0
  -93.3600   77.1080   -6.0800 C   0  0  0  0  0
  -92.7250   79.0930   -6.9220 C   0  0  0  0  0
  -93.5380   78.0420   -5.1290 N   0  0  0  0  0
  -93.1650   79.2510   -5.6150 C   0  0  0  0  0
  -92.2740   80.1880   -7.6700 C   0  0  0  0  0
  -93.1520   80.5340   -5.0550 C   0  0  0  0  0
  -92.2570   81.4620   -7.1090 C   0  0  0  0  0
  -92.6990   81.6250   -5.7980 C   0  0  0  0  0
  -96.0320   79.9090  -11.5770 C   0  0  0  0  0
  -94.0300   79.1350  -10.6470 N   0  0  0  0  0
  -97.0630   80.3660  -11.1690 O   0  0  0  0  0
  -94.7020   80.3710  -10.9070 C   0  0  0  0  0
  -93.7880   81.1910  -11.7940 C   0  0  0  0  0
  -94.4430   82.3180  -13.9750 C   0  0  0  0  0
  -93.1100   82.1620  -14.7160 C   0  0  0  0  0
  -94.2820   82.4830  -12.4490 C   0  0  0  0  0
  -95.0960   81.1500   -9.6930 C   0  0  0  0  0
  -96.0880   78.9280  -12.6570 N   0  0  0  0  0
  -97.4420   78.5720  -13.1790 C   0  0  0  0  0
  -98.3400   77.8340  -12.1360 C   0  0  0  0  0
  -99.4680   78.1780  -11.9820 O   0  0  0  0  0
  -97.2050   77.7530  -14.5000 C   0  0  0  0  0
  -96.5850   78.5180  -15.5510 C   0  0  0  0  0
  -98.5060   77.1900  -14.9810 C   0  0  0  0  0
  -95.7370   77.7460  -16.4570 C   0  0  0  0  0
  -97.8010   76.7320  -11.3990 N   0  0  0  0  0
  -98.6060   75.9960  -10.4410 C   0  0  0  0  0
  -99.1050   76.9790   -9.4100 C   0  0  0  0  0
 -100.2060   76.8110   -8.9310 O   0  0  0  0  0
  -97.6840   74.8710  -10.0340 C   0  0  0  0  0
  -98.1740   73.7430   -9.0880 C   0  0  0  0  0
  -98.1240   72.2990   -9.4200 N   0  0  0  0  0
  -97.7530   71.3690   -8.3500 C   0  0  0  0  0
  -97.6830   69.8600   -8.5250 C   0  0  0  0  0
  -97.8810   69.1220   -7.2380 N   0  0  0  0  0
  -98.4410   67.7880   -7.0090 C   0  0  0  0  0
  -98.5060   67.4010   -5.8220 O   0  0  0  0  0
  -98.9110   66.8270   -8.0630 C   0  0  0  0  0
  -97.7730   66.0070   -8.6250 C   0  0  0  0  0
  -99.6340   67.4470   -9.1660 N   0  3  0  0  0
  -97.4960   71.8260   -7.2430 O   0  0  0  0  0
  -96.0630   65.2140   -6.7520 P   0  0  0  0  0
  -97.2420   64.9800   -7.8480 O   0  0  0  0  0
  -94.8130   64.4750   -7.2110 O   0  0  0  0  0
  -95.7220   66.7050   -6.6040 O   0  0  0  0  0
  -96.4980   64.6590   -5.3860 O   0  0  0  0  0
  -98.3470   78.1950   -8.9490 N   0  0  0  0  0
  -98.9170   79.0890   -7.9490 C   0  0  0  0  0
 -100.0350   79.9530   -8.5520 C   0  0  0  0  0
 -100.9910   80.3380   -7.8330 O   0  0  0  0  0
  -97.9150   80.0500   -7.3210 C   0  0  0  0  0
  -97.8240   80.1890   -5.8250 C   0  0  0  0  0
  -97.1430   79.0830   -4.9410 C   0  0  0  0  0
  -97.4920   79.0830   -3.4120 C   0  0  0  0  0
  -97.9650   77.8460   -2.7910 N   0  3  0  0  0
 -100.0770   80.3750   -9.9680 N   0  0  0  0  0
 -101.1450   81.1990  -10.5160 C   0  0  0  0  0
 -102.2720   80.2030  -10.8470 C   0  0  0  0  0
 -103.3730   80.6320  -11.2110 O   0  0  0  0  0
 -100.8200   82.0020  -11.7470 C   0  0  0  0  0
  -99.3790   82.5210  -11.9750 C   0  0  0  0  0
  -99.1970   84.0380  -12.1810 C   0  0  0  0  0
  -98.5700   84.8350  -11.0770 C   0  0  0  0  0
  -97.1090   85.0210  -11.1400 N   0  3  0  0  0
 -101.9650   78.7130  -10.6920 N   0  0  0  0  0
 -102.9130   77.6020  -10.9730 C   0  0  0  0  0
 -102.9100   77.2080  -12.4670 C   0  0  0  0  0
 -103.3490   77.9910  -13.3340 O   0  0  0  0  0
 -104.3680   77.8330  -10.4250 C   0  0  0  0  0
 -104.5780   78.3840   -9.0390 C   0  0  0  0  0
 -105.7910   79.2800   -8.8000 C   0  0  0  0  0
 -107.0180   78.6850   -8.1450 C   0  0  0  0  0
 -108.1850   79.5320   -7.9330 N   0  3  0  0  0
 -102.4490   76.1180  -12.8490 O   0  0  0  0  0
  -81.6685   78.7851  -22.9164 H   0  0  0  0  0
  -83.1067   78.1713  -22.0644 H   0  0  0  0  0
  -82.3752   79.7194  -21.5753 H   0  0  0  0  0
  -82.1107   79.0975  -19.5023 H   0  0  0  0  0
  -79.9375   77.0832  -19.0681 H   0  0  0  0  0
  -81.1407   79.0958  -17.1558 H   0  0  0  0  0
  -79.6151   79.3160  -18.1188 H   0  0  0  0  0
  -78.5843   78.3312  -14.7225 H   0  0  0  0  0
  -79.3532   79.7151  -15.5066 H   0  0  0  0  0
  -80.5496   75.0865  -18.6483 H   0  0  0  0  0
  -83.1712   74.1751  -18.1491 H   0  0  0  0  0
  -80.5334   73.0146  -17.2332 H   0  0  0  0  0
  -81.3520   72.7853  -18.8997 H   0  0  0  0  0
  -83.2823   71.0113  -19.0368 H   0  0  0  0  0
  -80.4809   72.1862  -14.9154 H   0  0  0  0  0
  -83.2257   67.9878  -15.0229 H   0  0  0  0  0
  -80.4871   70.6188  -13.0008 H   0  0  0  0  0
  -81.8547   68.5537  -13.0502 H   0  0  0  0  0
  -80.7722   75.4042  -15.9022 H   0  0  0  0  0
  -82.0815   74.2811  -13.5697 H   0  0  0  0  0
  -80.5639   75.8352  -12.3434 H   0  0  0  0  0
  -79.9832   76.4112  -13.9769 H   0  0  0  0  0
  -79.9405   73.6764  -11.5056 H   0  0  0  0  0
  -78.6114   75.0165  -15.3531 H   0  0  0  0  0
  -78.2683   71.8272  -11.5637 H   0  0  0  0  0
  -76.9408   73.1575  -15.4221 H   0  0  0  0  0
  -76.7827   71.5544  -13.5419 H   0  0  0  0  0
  -83.1377   76.6080  -15.6265 H   0  0  0  0  0
  -84.3595   78.1278  -13.3838 H   0  0  0  0  0
  -85.0289   79.7268  -15.2834 H   0  0  0  0  0
  -83.8605   78.7775  -16.2889 H   0  0  0  0  0
  -81.4685   81.1845  -15.2920 H   0  0  0  0  0
  -82.4830   80.5812  -16.6064 H   0  0  0  0  0
  -85.0876   75.5494  -15.2314 H   0  0  0  0  0
  -87.6394   76.3068  -16.2741 H   0  0  0  0  0
  -86.3927   73.5980  -15.7209 H   0  0  0  0  0
  -85.2298   74.9076  -17.3897 H   0  0  0  0  0
  -86.7972   75.2344  -18.2443 H   0  0  0  0  0
  -88.8138   73.3648  -15.7463 H   0  0  0  0  0
  -88.8959   74.2444  -17.2924 H   0  0  0  0  0
  -88.0952   72.6558  -17.2133 H   0  0  0  0  0
  -85.4596   72.5499  -17.9061 H   0  0  0  0  0
  -86.9975   72.8705  -18.7446 H   0  0  0  0  0
  -85.4764   73.5350  -19.3894 H   0  0  0  0  0
  -86.7319   74.8096  -13.1683 H   0  0  0  0  0
  -89.4669   74.0087  -12.6635 H   0  0  0  0  0
  -88.7121   73.5394  -10.3353 H   0  0  0  0  0
  -86.4217   73.7683   -9.9978 H   0  0  0  0  0
  -88.5308   71.8879  -12.1455 H   0  0  0  0  0
  -86.9282   72.5361  -12.5728 H   0  0  0  0  0
  -87.1766   71.7420  -10.9983 H   0  0  0  0  0
  -87.5797   76.8827  -12.1753 H   0  0  0  0  0
  -89.3596   78.1495  -10.3204 H   0  0  0  0  0
  -87.6838   79.4389  -12.4765 H   0  0  0  0  0
  -87.1034   78.9624  -10.8342 H   0  0  0  0  0
  -89.0003   82.4839  -11.4492 H   0  0  0  0  0
  -88.4773   81.4144  -12.7545 H   0  0  0  0  0
  -89.2435   78.1598  -13.9068 H   0  0  0  0  0
  -90.6769   80.7097  -14.7982 H   0  0  0  0  0
  -91.8451   80.3967  -13.3361 H   0  0  0  0  0
  -93.5936   80.1694  -15.0633 H   0  0  0  0  0
  -92.4169   80.9089  -16.2242 H   0  0  0  0  0
  -89.8750   79.0463  -16.0399 H   0  0  0  0  0
  -90.4400   77.3684  -15.8491 H   0  0  0  0  0
  -91.5250   78.6002  -16.5393 H   0  0  0  0  0
  -91.2110   76.1204  -13.8852 H   0  0  0  0  0
  -93.9644   75.6017  -14.0523 H   0  0  0  0  0
  -93.3777   73.5413  -12.6798 H   0  0  0  0  0
  -91.6827   74.2235  -12.5972 H   0  0  0  0  0
  -91.5621   74.1227  -15.0144 H   0  0  0  0  0
  -90.6801   72.3327  -13.7625 H   0  0  0  0  0
  -92.2633   71.5177  -13.7508 H   0  0  0  0  0
  -91.3898   71.7443  -15.2860 H   0  0  0  0  0
  -94.2594   72.7978  -14.9152 H   0  0  0  0  0
  -93.8611   74.3880  -15.6107 H   0  0  0  0  0
  -93.1992   72.9053  -16.3419 H   0  0  0  0  0
  -91.9136   76.5516  -11.0054 H   0  0  0  0  0
  -94.1801   76.0089   -9.2768 H   0  0  0  0  0
  -91.8126   77.8426   -9.0480 H   0  0  0  0  0
  -92.0641   76.1248   -8.3296 H   0  0  0  0  0
  -93.5784   76.0449   -5.9790 H   0  0  0  0  0
  -91.9349   80.0420   -8.6956 H   0  0  0  0  0
  -93.4980   80.6818   -4.0320 H   0  0  0  0  0
  -91.9040   82.3171   -7.6855 H   0  0  0  0  0
  -92.6909   82.6172   -5.3468 H   0  0  0  0  0
  -93.1572   78.9761  -11.1504 H   0  0  0  0  0
  -93.5733   80.5321  -12.6353 H   0  0  0  0  0
  -92.9932   81.5198  -11.1245 H   0  0  0  0  0
  -95.0223   81.4110  -14.1476 H   0  0  0  0  0
  -94.9251   83.2194  -14.3534 H   0  0  0  0  0
  -93.2095   82.7657  -15.6181 H   0  0  0  0  0
  -92.3439   82.4412  -13.9926 H   0  0  0  0  0
  -93.5484   83.2672  -12.2621 H   0  0  0  0  0
  -95.2537   82.7355  -12.0247 H   0  0  0  0  0
  -95.7027   82.0046   -9.9924 H   0  0  0  0  0
  -95.6717   80.5107   -9.0237 H   0  0  0  0  0
  -94.1998   81.5005   -9.1811 H   0  0  0  0  0
  -95.2415   78.5050  -13.0377 H   0  0  0  0  0
  -98.0172   79.4734  -13.3903 H   0  0  0  0  0
  -96.5077   76.9532  -14.2505 H   0  0  0  0  0
  -95.9423   79.2540  -15.0681 H   0  0  0  0  0
  -97.3910   78.9367  -16.1537 H   0  0  0  0  0
  -98.9212   76.5336  -14.2163 H   0  0  0  0  0
  -99.2021   78.0051  -15.1790 H   0  0  0  0  0
  -98.3386   76.6229  -15.8967 H   0  0  0  0  0
  -94.9305   77.2811  -15.8900 H   0  0  0  0  0
  -96.3341   76.9737  -16.9418 H   0  0  0  0  0
  -95.3162   78.4095  -17.2125 H   0  0  0  0  0
  -96.8302   76.4578  -11.5501 H   0  0  0  0  0
  -99.5378   75.5343  -10.7678 H   0  0  0  0  0
  -96.8940   75.3663   -9.4695 H   0  0  0  0  0
  -97.4644   74.3562  -10.9694 H   0  0  0  0  0
  -99.2446   73.9360   -9.0200 H   0  0  0  0  0
  -97.4844   73.8193   -8.2474 H   0  0  0  0  0
  -98.3400   71.9649  -10.3592 H   0  0  0  0  0
  -96.6920   69.6119   -8.9051 H   0  0  0  0  0
  -98.4796   69.5640   -9.2076 H   0  0  0  0  0
  -97.5829   69.6199   -6.3992 H   0  0  0  0  0
  -99.6143   66.1821   -7.5362 H   0  0  0  0  0
  -96.9539   66.7134   -8.7594 H   0  0  0  0  0
  -98.1867   65.5127   -9.5040 H   0  0  0  0  0
  -99.9157   66.7285   -9.8329 H   0  0  0  0  0
 -100.4620   67.9206   -8.8047 H   0  0  0  0  0
  -99.0286   68.1244   -9.6297 H   0  0  0  0  0
  -96.5024   67.1834   -6.3147 H   0  0  0  0  0
  -97.2861   65.1208   -5.0905 H   0  0  0  0  0
  -97.4264   78.3951   -9.3399 H   0  0  0  0  0
  -99.2892   78.4167   -7.1760 H   0  0  0  0  0
  -98.2363   81.0339   -7.6629 H   0  0  0  0  0
  -96.9429   79.6529   -7.6132 H   0  0  0  0  0
  -98.8638   80.1814   -5.4981 H   0  0  0  0  0
  -97.1908   81.0646   -5.6819 H   0  0  0  0  0
  -96.0709   79.2697   -5.0026 H   0  0  0  0  0
  -97.5001   78.1290   -5.3288 H   0  0  0  0  0
  -98.3233   79.7812   -3.3143 H   0  0  0  0  0
  -96.5508   79.3066   -2.9098 H   0  0  0  0  0
  -98.1466   78.0118   -1.8011 H   0  0  0  0  0
  -98.8245   77.5438   -3.2496 H   0  0  0  0  0
  -97.2526   77.1229   -2.8908 H   0  0  0  0  0
  -99.3247   80.0758  -10.5885 H   0  0  0  0  0
 -101.3897   81.9628   -9.7779 H   0  0  0  0  0
 -101.4227   82.9051  -11.6502 H   0  0  0  0  0
 -100.9963   81.3151  -12.5748 H   0  0  0  0  0
  -99.0411   82.0553  -12.9008 H   0  0  0  0  0
  -98.8312   82.2795  -11.0641 H   0  0  0  0  0
 -100.2063   84.4363  -12.2845 H   0  0  0  0  0
  -98.5149   84.1327  -13.0259 H   0  0  0  0  0
  -98.7620   84.2787  -10.1595 H   0  0  0  0  0
  -99.0024   85.8332  -11.1452 H   0  0  0  0  0
  -96.8032   85.5754  -10.3403 H   0  0  0  0  0
  -96.6503   84.1102  -11.1192 H   0  0  0  0  0
  -96.8661   85.5057  -12.0040 H   0  0  0  0  0
 -101.0314   78.4597  -10.3686 H   0  0  0  0  0
 -102.5330   76.7540  -10.4032 H   0  0  0  0  0
 -103.6726   78.7886  -12.9088 H   0  0  0  0  0
 -104.8049   76.8351  -10.3885 H   0  0  0  0  0
 -104.7881   78.5924  -11.0845 H   0  0  0  0  0
 -103.7102   79.0140   -8.8438 H   0  0  0  0  0
 -104.7318   77.5131   -8.4019 H   0  0  0  0  0
 -106.1197   79.5819   -9.7944 H   0  0  0  0  0
 -105.4441   80.0464   -8.1069 H   0  0  0  0  0
 -106.6923   78.3993   -7.1448 H   0  0  0  0  0
 -107.3550   77.9086   -8.8318 H   0  0  0  0  0
 -108.9220   78.9874   -7.4851 H   0  0  0  0  0
 -107.9294   80.3174   -7.3345 H   0  0  0  0  0
 -108.5174   79.8819   -8.8316 H   0  0  0  0  0
  1  2  2  0  0  0
  1  3  1  0  0  0
  4  1  1  0  0  0
  5  4  1  0  0  0
  6  5  1  0  0  0
  5  8  1  0  0  0
  6  7  2  0  0  0
 12  6  1  0  0  0
  8  9  1  0  0  0
  9 10  2  0  0  0
  9 11  1  0  0  0
 13 12  1  0  0  0
 14 13  1  0  0  0
 13 16  1  0  0  0
 14 15  2  0  0  0
 26 14  1  0  0  0
 16 17  1  0  0  0
 17 18  4  0  0  0
 17 19  4  0  0  0
 18 20  4  0  0  0
 19 21  4  0  0  0
 19 22  4  0  0  0
 21 20  4  0  0  0
 21 23  4  0  0  0
 22 24  4  0  0  0
 23 25  4  0  0  0
 24 25  4  0  0  0
 27 26  1  0  0  0
 28 27  1  0  0  0
 27 30  1  0  0  0
 28 29  2  0  0  0
 37 28  1  0  0  0
 30 31  1  0  0  0
 31 32  4  0  0  0
 31 33  4  0  0  0
 32 34  4  0  0  0
 33 35  4  0  0  0
 34 36  4  0  0  0
 35 36  4  0  0  0
 38 37  1  0  0  0
 39 38  1  0  0  0
 38 41  1  0  0  0
 39 40  2  0  0  0
 45 39  1  0  0  0
 41 42  1  0  0  0
 42 43  2  0  0  0
 42 44  1  0  0  0
 46 45  1  0  0  0
 47 46  1  0  0  0
 46 49  1  0  0  0
 47 48  2  0  0  0
 53 47  1  0  0  0
 49 50  1  0  0  0
 49 51  1  0  0  0
 50 52  1  0  0  0
 54 53  1  0  0  0
 55 54  1  0  0  0
 54 57  1  0  0  0
 55 56  2  0  0  0
 60 55  1  0  0  0
 57 58  1  0  0  0
 57 59  1  0  0  0
 61 60  1  0  0  0
 62 61  1  0  0  0
 61 64  1  0  0  0
 62 63  2  0  0  0
 68 62  1  0  0  0
 64 65  1  0  0  0
 65 66  2  0  0  0
 65 67  1  0  0  0
 69 68  1  0  0  0
 69 70  1  0  0  0
 69 72  1  0  0  0
 73 69  1  0  0  0
 70 71  1  0  0  0
 71103  1  0  0  0
 73 74  2  0  0  0
 75 73  1  0  0  0
 76 75  1  0  0  0
 77 76  1  0  0  0
 76 79  1  0  0  0
 77 78  2  0  0  0
 83 77  1  0  0  0
 79 80  1  0  0  0
 80 81  1  0  0  0
 80 82  1  0  0  0
 84 83  1  0  0  0
 85 84  1  0  0  0
 84 87  1  0  0  0
 85 86  2  0  0  0
 98 85  1  0  0  0
 87 88  1  0  0  0
 88 89  4  0  0  0
 88 90  4  0  0  0
 89 91  4  0  0  0
 90 92  4  0  0  0
 90 93  4  0  0  0
 92 91  4  0  0  0
 92 94  4  0  0  0
 93 95  4  0  0  0
 94 96  4  0  0  0
 95 96  4  0  0  0
 97 99  2  0  0  0
100 97  1  0  0  0
 97106  1  0  0  0
 98100  1  0  0  0
100101  1  0  0  0
100105  1  0  0  0
101104  1  0  0  0
103102  1  0  0  0
102104  1  0  0  0
106107  1  0  0  0
107108  1  0  0  0
107110  1  0  0  0
108109  2  0  0  0
108114  1  0  0  0
110111  1  0  0  0
110112  1  0  0  0
111113  1  0  0  0
114115  1  0  0  0
115116  1  0  0  0
115118  1  0  0  0
116117  2  0  0  0
116135  1  0  0  0
118119  1  0  0  0
119120  1  0  0  0
120121  1  0  0  0
121122  1  0  0  0
121129  2  0  0  0
122123  1  0  0  0
123124  1  0  0  0
124125  2  0  0  0
124126  1  0  0  0
126127  1  0  0  0
126128  1  0  0  0
127131  1  0  0  0
131130  1  0  0  0
130132  2  0  0  0
130133  1  0  0  0
130134  1  0  0  0
135136  1  0  0  0
136137  1  0  0  0
136139  1  0  0  0
137138  2  0  0  0
137144  1  0  0  0
139140  1  0  0  0
140141  1  0  0  0
141142  1  0  0  0
142143  1  0  0  0
144145  1  0  0  0
145146  1  0  0  0
145148  1  0  0  0
146147  2  0  0  0
146153  1  0  0  0
148149  1  0  0  0
149150  1  0  0  0
150151  1  0  0  0
151152  1  0  0  0
153154  1  0  0  0
154155  1  0  0  0
154157  1  0  0  0
155156  1  0  0  0
155162  2  0  0  0
157158  1  0  0  0
158159  1  0  0  0
159160  1  0  0  0
160161  1  0  0  0
  3163  1  0  0  0
  3164  1  0  0  0
  3165  1  0  0  0
  4166  1  0  0  0
  5167  1  0  0  0
  8168  1  0  0  0
  8169  1  0  0  0
 11170  1  0  0  0
 11171  1  0  0  0
 12172  1  0  0  0
 13173  1  0  0  0
 16174  1  0  0  0
 16175  1  0  0  0
 18176  1  0  0  0
 22177  1  0  0  0
 23178  1  0  0  0
 24179  1  0  0  0
 25180  1  0  0  0
 26181  1  0  0  0
 27182  1  0  0  0
 30183  1  0  0  0
 30184  1  0  0  0
 32185  1  0  0  0
 33186  1  0  0  0
 34187  1  0  0  0
 35188  1  0  0  0
 36189  1  0  0  0
 37190  1  0  0  0
 38191  1  0  0  0
 41192  1  0  0  0
 41193  1  0  0  0
 44194  1  0  0  0
 44195  1  0  0  0
 45196  1  0  0  0
 46197  1  0  0  0
 49198  1  0  0  0
 50199  1  0  0  0
 50200  1  0  0  0
 51201  1  0  0  0
 51202  1  0  0  0
 51203  1  0  0  0
 52204  1  0  0  0
 52205  1  0  0  0
 52206  1  0  0  0
 53207  1  0  0  0
 54208  1  0  0  0
 57209  1  0  0  0
 58210  1  0  0  0
 59211  1  0  0  0
 59212  1  0  0  0
 59213  1  0  0  0
 60214  1  0  0  0
 61215  1  0  0  0
 64216  1  0  0  0
 64217  1  0  0  0
 67218  1  0  0  0
 67219  1  0  0  0
 68220  1  0  0  0
 70221  1  0  0  0
 70222  1  0  0  0
 71223  1  0  0  0
 71224  1  0  0  0
 72225  1  0  0  0
 72226  1  0  0  0
 72227  1  0  0  0
 75228  1  0  0  0
 76229  1  0  0  0
 79230  1  0  0  0
 79231  1  0  0  0
 80232  1  0  0  0
 81233  1  0  0  0
 81234  1  0  0  0
 81235  1  0  0  0
 82236  1  0  0  0
 82237  1  0  0  0
 82238  1  0  0  0
 83239  1  0  0  0
 84240  1  0  0  0
 87241  1  0  0  0
 87242  1  0  0  0
 89243  1  0  0  0
 93244  1  0  0  0
 94245  1  0  0  0
 95246  1  0  0  0
 96247  1  0  0  0
 98248  1  0  0  0
101249  1  0  0  0
101250  1  0  0  0
102251  1  0  0  0
102252  1  0  0  0
103253  1  0  0  0
103254  1  0  0  0
104255  1  0  0  0
104256  1  0  0  0
105257  1  0  0  0
105258  1  0  0  0
105259  1  0  0  0
106260  1  0  0  0
107261  1  0  0  0
110262  1  0  0  0
111263  1  0  0  0
111264  1  0  0  0
112265  1  0  0  0
112266  1  0  0  0
112267  1  0  0  0
113268  1  0  0  0
113269  1  0  0  0
113270  1  0  0  0
114271  1  0  0  0
115272  1  0  0  0
118273  1  0  0  0
118274  1  0  0  0
119275  1  0  0  0
119276  1  0  0  0
120277  1  0  0  0
122278  1  0  0  0
122279  1  0  0  0
123280  1  0  0  0
126281  1  0  0  0
127282  1  0  0  0
127283  1  0  0  0
128284  1  0  0  0
128285  1  0  0  0
128286  1  0  0  0
133287  1  0  0  0
134288  1  0  0  0
135289  1  0  0  0
136290  1  0  0  0
139291  1  0  0  0
139292  1  0  0  0
140293  1  0  0  0
140294  1  0  0  0
141295  1  0  0  0
141296  1  0  0  0
142297  1  0  0  0
142298  1  0  0  0
143299  1  0  0  0
143300  1  0  0  0
143301  1  0  0  0
144302  1  0  0  0
145303  1  0  0  0
148304  1  0  0  0
148305  1  0  0  0
149306  1  0  0  0
149307  1  0  0  0
150308  1  0  0  0
150309  1  0  0  0
151310  1  0  0  0
151311  1  0  0  0
152312  1  0  0  0
152313  1  0  0  0
152314  1  0  0  0
153315  1  0  0  0
154316  1  0  0  0
156317  1  0  0  0
157318  1  0  0  0
157319  1  0  0  0
158320  1  0  0  0
158321  1  0  0  0
159322  1  0  0  0
159323  1  0  0  0
160324  1  0  0  0
160325  1  0  0  0
161326  1  0  0  0
161327  1  0  0  0
161328  1  0  0  0
M  END
$$$$
