4non_ligand
  -I-interpret- 

 42 44  0  0  0  0  0  0  0  0999 V2000
   -0.8970  -37.3200   16.1450 P   0  0  0  0  0
   -1.5510  -36.9380   14.8400 O   0  0  0  0  0
   -0.8720  -36.2210   17.1770 O   0  0  0  0  0
    0.4170  -38.0580   16.0260 O   0  0  0  0  0
   -1.8870  -38.3910   16.8340 O   0  0  0  0  0
   -2.9210  -39.3340   16.0360 P   0  0  0  0  0
   -4.1610  -38.5370   15.7390 O   0  0  0  0  0
   -2.1990  -40.0470   14.9150 O   0  0  0  0  0
   -3.2640  -40.4090   17.1770 O   0  0  0  0  0
   -2.2110  -40.9500   17.9720 C   0  0  0  0  0
   -2.6490  -42.2440   18.6450 C   0  0  0  0  0
   -3.4660  -41.9290   19.7720 O   0  0  0  0  0
   -3.4660  -43.1520   17.7350 C   0  0  0  0  0
   -3.0070  -44.5060   17.8530 O   0  0  0  0  0
   -4.8970  -43.0200   18.2180 C   0  0  0  0  0
   -5.5700  -44.2800   18.1960 O   0  0  0  0  0
   -4.7730  -42.4980   19.6420 C   0  0  0  0  0
   -5.7530  -41.4460   20.0070 N   0  0  0  0  0
   -5.9570  -40.2730   19.3760 C   0  0  0  0  0
   -6.9140  -39.5440   20.0090 N   0  0  0  0  0
   -7.3270  -40.2520   21.0750 C   0  0  0  0  0
   -8.3090  -40.0750   22.1720 C   0  0  0  0  0
   -9.0040  -39.0430   22.2490 O   0  0  0  0  0
   -8.4330  -41.0530   23.0820 N   0  0  0  0  0
   -7.6930  -42.1830   23.0240 C   0  0  0  0  0
   -7.8640  -43.1360   23.9730 N   0  0  0  0  0
   -6.7750  -42.4090   22.0490 N   0  0  0  0  0
   -6.5530  -41.5000   21.0690 C   0  0  0  0  0
   -1.5269  -37.6870   14.2400 H   0  0  0  0  0
    0.3391  -38.7420   15.3569 H   0  0  0  0  0
   -1.4339  -40.5058   15.2695 H   0  0  0  0  0
   -1.9458  -40.2261   18.7426 H   0  0  0  0  0
   -1.3578  -41.1612   17.3274 H   0  0  0  0  0
   -1.7362  -42.7712   18.9225 H   0  0  0  0  0
   -3.3738  -42.8776   16.6841 H   0  0  0  0  0
   -3.5272  -45.0704   17.2765 H   0  0  0  0  0
   -5.4835  -42.3577   17.5813 H   0  0  0  0  0
   -6.4713  -44.1656   18.5061 H   0  0  0  0  0
   -4.9621  -43.3427   20.3044 H   0  0  0  0  0
   -5.4265  -39.9521   18.4795 H   0  0  0  0  0
   -8.5448  -42.9960   24.7195 H   0  0  0  0  0
   -6.2428  -43.2791   22.0546 H   0  0  0  0  0
  1  2  1  0  0  0
  1  3  2  0  0  0
  1  4  1  0  0  0
  1  5  1  0  0  0
  5  6  1  0  0  0
  6  7  2  0  0  0
  6  8  1  0  0  0
  6  9  1  0  0  0
  9 10  1  0  0  0
 10 11  1  0  0  0
 11 12  1  0  0  0
 11 13  1  0  0  0
 12 17  1  0  0  0
 13 14  1  0  0  0
 13 15  1  0  0  0
 15 16  1  0  0  0
 15 17  1  0  0  0
 17 18  1  0  0  0
 18 19  4  0  0  0
 18 28  4  0  0  0
 19 20  4  0  0  0
 20 21  4  0  0  0
 21 22  1  0  0  0
 21 28  4  0  0  0
 22 23  2  0  0  0
 22 24  1  0  0  0
 24 25  4  0  0  0
 25 26  2  0  0  0
 25 27  1  0  0  0
 27 28  1  0  0  0
  2 29  1  0  0  0
  4 30  1  0  0  0
  8 31  1  0  0  0
 10 32  1  0  0  0
 10 33  1  0  0  0
 11 34  1  0  0  0
 13 35  1  0  0  0
 14 36  1  0  0  0
 15 37  1  0  0  0
 16 38  1  0  0  0
 17 39  1  0  0  0
 19 40  1  0  0  0
 26 41  1  0  0  0
 27 42  1  0  0  0
M  END
$$$$
