4nxv_ligand
  -I-interpret- 

 42 44  0  0  0  0  0  0  0  0999 V2000
   -4.7470  -27.1360  -11.5440 P   0  0  0  0  0
   -5.2720  -25.7330  -11.3640 O   0  0  0  0  0
   -3.9280  -27.2000  -12.8130 O   0  0  0  0  0
   -5.8990  -28.0860  -11.6510 O   0  0  0  0  0
   -3.8530  -27.4840  -10.3090 O   0  0  0  0  0
   -4.2780  -28.5960   -9.2920 P   0  0  0  0  0
   -3.1380  -28.8510   -8.3230 O   0  0  0  0  0
   -5.5100  -28.1440   -8.5300 O   0  0  0  0  0
   -4.5950  -29.9050  -10.1050 O   0  0  0  0  0
   -5.0650  -31.0740   -9.5000 C   0  0  0  0  0
   -5.0420  -32.1430  -10.5720 C   0  0  0  0  0
   -4.0850  -33.1260  -10.2690 O   0  0  0  0  0
   -6.3790  -32.7940  -10.7620 C   0  0  0  0  0
   -6.5810  -33.2240  -12.0640 O   0  0  0  0  0
   -6.2430  -33.8910   -9.7680 C   0  0  0  0  0
   -7.0590  -34.9670  -10.0670 O   0  0  0  0  0
   -4.7750  -34.2510   -9.8010 C   0  0  0  0  0
   -4.2410  -34.6990   -8.5180 N   0  0  0  0  0
   -3.2870  -35.6380   -8.3540 C   0  0  0  0  0
   -3.0280  -35.7940   -7.0650 N   0  0  0  0  0
   -3.7960  -34.9620   -6.3600 C   0  0  0  0  0
   -3.9570  -34.6850   -4.9680 C   0  0  0  0  0
   -3.2900  -35.2870   -4.1370 O   0  0  0  0  0
   -4.8850  -33.7220   -4.5790 N   0  0  0  0  0
   -5.7030  -32.9740   -5.5030 C   0  0  0  0  0
   -6.6620  -31.9660   -5.0420 N   0  0  0  0  0
   -5.5580  -33.2230   -6.8020 N   0  0  0  0  0
   -4.5890  -34.2390   -7.2740 C   0  0  0  0  0
   -4.5341  -25.1228  -11.2952 H   0  0  0  0  0
   -3.1886  -26.5914  -12.7464 H   0  0  0  0  0
   -2.3623  -29.1364   -8.8113 H   0  0  0  0  0
   -6.0714  -30.9349   -9.1053 H   0  0  0  0  0
   -4.4417  -31.3552   -8.6512 H   0  0  0  0  0
   -4.7779  -31.6428  -11.5037 H   0  0  0  0  0
   -7.2498  -32.1557  -10.6123 H   0  0  0  0  0
   -7.4471  -33.6320  -12.1343 H   0  0  0  0  0
   -6.5613  -33.5853   -8.7713 H   0  0  0  0  0
   -6.9413  -35.6506   -9.4033 H   0  0  0  0  0
   -4.6438  -35.1080  -10.4616 H   0  0  0  0  0
   -2.8019  -36.1863   -9.1616 H   0  0  0  0  0
   -6.7644  -31.7779   -4.0447 H   0  0  0  0  0
   -6.1202  -32.7087   -7.4801 H   0  0  0  0  0
  1  2  1  0  0  0
  1  3  1  0  0  0
  1  4  2  0  0  0
  1  5  1  0  0  0
  5  6  1  0  0  0
  6  7  1  0  0  0
  6  8  2  0  0  0
  6  9  1  0  0  0
  9 10  1  0  0  0
 10 11  1  0  0  0
 11 12  1  0  0  0
 11 13  1  0  0  0
 12 17  1  0  0  0
 13 14  1  0  0  0
 13 15  1  0  0  0
 15 16  1  0  0  0
 15 17  1  0  0  0
 17 18  1  0  0  0
 18 19  4  0  0  0
 18 28  4  0  0  0
 19 20  4  0  0  0
 20 21  4  0  0  0
 21 22  1  0  0  0
 21 28  4  0  0  0
 22 23  2  0  0  0
 22 24  1  0  0  0
 24 25  4  0  0  0
 25 26  2  0  0  0
 25 27  1  0  0  0
 27 28  1  0  0  0
  2 29  1  0  0  0
  3 30  1  0  0  0
  7 31  1  0  0  0
 10 32  1  0  0  0
 10 33  1  0  0  0
 11 34  1  0  0  0
 13 35  1  0  0  0
 14 36  1  0  0  0
 15 37  1  0  0  0
 16 38  1  0  0  0
 17 39  1  0  0  0
 19 40  1  0  0  0
 26 41  1  0  0  0
 27 42  1  0  0  0
M  END
$$$$
