4or4_ligand
  -I-interpret- 

 46 48  0  0  0  0  0  0  0  0999 V2000
   -9.9430   24.9820  -46.3540 P   0  0  0  0  0
  -10.1520   26.4540  -46.6510 O   0  0  0  0  0
   -9.0400   24.1600  -47.1610 O   0  0  0  0  0
  -11.4010   24.2400  -46.5160 O   0  0  0  0  0
   -9.5700   24.7210  -44.7750 O   0  0  0  0  0
  -12.7650   24.7580  -45.8110 P   0  0  0  0  0
  -13.0920   26.2210  -45.8450 O   0  0  0  0  0
  -13.8260   23.8760  -46.4280 O   0  0  0  0  0
  -12.8070   24.5460  -44.2240 O   0  0  0  0  0
   -9.2980   23.3770  -44.3750 C   0  0  0  0  0
   -8.2540   23.4760  -43.2620 C   0  0  0  0  0
   -8.3400   22.2700  -42.4910 O   0  0  0  0  0
   -6.8820   23.4860  -43.9240 C   0  0  0  0  0
   -6.0100   24.1940  -43.0540 O   0  0  0  0  0
   -6.5070   22.0260  -43.9060 C   0  0  0  0  0
   -5.0830   21.9210  -43.7600 O   0  0  0  0  0
   -7.1700   21.4630  -42.6360 C   0  0  0  0  0
   -7.2420   19.9570  -42.6860 N   0  0  0  0  0
   -7.8830   18.9850  -43.6930 C   0  0  0  0  0
   -7.9190   17.5450  -43.1140 N   0  3  0  0  0
   -8.4340   16.6720  -43.9380 C   0  0  0  0  0
   -7.7810   17.8970  -41.7420 C   0  0  0  0  0
   -7.9590   17.1650  -40.4970 C   0  0  0  0  0
   -8.2690   16.0020  -40.5990 O   0  0  0  0  0
   -7.7890   17.8050  -39.2880 N   0  0  0  0  0
   -7.4020   19.1140  -39.1590 C   0  0  0  0  0
   -7.2160   19.7450  -37.9550 N   0  0  0  0  0
   -7.2270   19.8700  -40.2700 N   0  0  0  0  0
   -7.4370   19.3160  -41.4990 C   0  0  0  0  0
  -10.7746   26.8215  -46.0194 H   0  0  0  0  0
  -13.5504   22.9582  -46.3710 H   0  0  0  0  0
  -12.6123   23.6285  -44.0196 H   0  0  0  0  0
   -8.9309   22.7814  -45.2108 H   0  0  0  0  0
  -10.2017   22.8765  -44.0273 H   0  0  0  0  0
   -8.4096   24.3620  -42.6465 H   0  0  0  0  0
   -6.8462   23.9333  -44.9174 H   0  0  0  0  0
   -5.1305   24.2224  -43.4379 H   0  0  0  0  0
   -6.8162   21.5023  -44.8106 H   0  0  0  0  0
   -4.8312   20.9947  -43.7471 H   0  0  0  0  0
   -6.6275   21.5473  -41.6943 H   0  0  0  0  0
   -7.2913   18.9833  -44.6084 H   0  0  0  0  0
   -8.9033   19.3095  -43.8972 H   0  0  0  0  0
   -8.7845   16.9901  -44.9199 H   0  0  0  0  0
   -8.5132   15.6255  -43.6437 H   0  0  0  0  0
   -7.3669   19.2362  -37.0839 H   0  0  0  0  0
   -6.9405   20.8455  -40.1881 H   0  0  0  0  0
  1  2  1  0  0  0
  1  3  2  0  0  0
  1  4  1  0  0  0
  1  5  1  0  0  0
  4  6  1  0  0  0
  5 10  1  0  0  0
  6  7  2  0  0  0
  6  8  1  0  0  0
  6  9  1  0  0  0
 10 11  1  0  0  0
 11 12  1  0  0  0
 11 13  1  0  0  0
 12 17  1  0  0  0
 13 14  1  0  0  0
 13 15  1  0  0  0
 15 16  1  0  0  0
 15 17  1  0  0  0
 17 18  1  0  0  0
 18 19  1  0  0  0
 18 29  1  0  0  0
 19 20  1  0  0  0
 20 21  2  0  0  0
 20 22  1  0  0  0
 22 23  1  0  0  0
 22 29  2  0  0  0
 23 24  2  0  0  0
 23 25  1  0  0  0
 25 26  4  0  0  0
 26 27  2  0  0  0
 26 28  1  0  0  0
 28 29  1  0  0  0
  2 30  1  0  0  0
  8 31  1  0  0  0
  9 32  1  0  0  0
 10 33  1  0  0  0
 10 34  1  0  0  0
 11 35  1  0  0  0
 13 36  1  0  0  0
 14 37  1  0  0  0
 15 38  1  0  0  0
 16 39  1  0  0  0
 17 40  1  0  0  0
 19 41  1  0  0  0
 19 42  1  0  0  0
 21 43  1  0  0  0
 21 44  1  0  0  0
 27 45  1  0  0  0
 28 46  1  0  0  0
M  END
$$$$
