4or6_ligand
  -I-interpret- 

 42 44  0  0  0  0  0  0  0  0999 V2000
  -12.3650  -24.5840   -1.8990 P   0  0  0  0  0
  -12.5420  -25.9940   -1.3900 O   0  0  0  0  0
  -13.5430  -23.7380   -1.4780 O   0  0  0  0  0
  -12.2790  -24.5950   -3.4070 O   0  0  0  0  0
  -11.0170  -23.9400   -1.3000 O   0  0  0  0  0
   -9.5990  -24.7000   -1.3760 P   0  0  0  0  0
   -9.7410  -26.1790   -1.1040 O   0  0  0  0  0
   -8.6140  -24.0690   -0.4220 O   0  0  0  0  0
   -9.1390  -24.4430   -2.8930 O   0  0  0  0  0
   -8.7410  -23.1390   -3.2960 C   0  0  0  0  0
   -7.6430  -23.2510   -4.3380 C   0  0  0  0  0
   -7.7690  -22.1700   -5.2590 O   0  0  0  0  0
   -6.2820  -23.1200   -3.6800 C   0  0  0  0  0
   -5.4410  -24.1780   -4.1400 O   0  0  0  0  0
   -5.7220  -21.7980   -4.1570 C   0  0  0  0  0
   -4.3290  -21.9290   -4.4450 O   0  0  0  0  0
   -6.5210  -21.4950   -5.4120 C   0  0  0  0  0
   -6.7810  -20.0450   -5.5590 N   0  0  0  0  0
   -7.0360  -19.1630   -4.5750 C   0  0  0  0  0
   -7.2440  -17.9200   -5.0840 N   0  0  0  0  0
   -7.1350  -18.0070   -6.4240 C   0  0  0  0  0
   -7.2400  -17.0810   -7.5750 C   0  0  0  0  0
   -7.4920  -15.8690   -7.4030 O   0  0  0  0  0
   -7.0570  -17.5820   -8.8040 N   0  0  0  0  0
   -6.7850  -18.8830   -9.0210 C   0  0  0  0  0
   -6.6140  -19.3150  -10.2940 N   0  0  0  0  0
   -6.6740  -19.7860   -8.0160 N   0  0  0  0  0
   -6.8360  -19.4120   -6.7270 C   0  0  0  0  0
  -13.4254  -22.8428   -1.8041 H   0  0  0  0  0
  -12.1665  -23.6968   -3.7265 H   0  0  0  0  0
  -10.3710  -26.5577   -1.7215 H   0  0  0  0  0
   -8.3703  -22.5868   -2.4324 H   0  0  0  0  0
   -9.5950  -22.6110   -3.7203 H   0  0  0  0  0
   -7.7325  -24.2163   -4.8364 H   0  0  0  0  0
   -6.3452  -23.1671   -2.5929 H   0  0  0  0  0
   -4.5776  -24.1013   -3.7274 H   0  0  0  0  0
   -5.8038  -21.0024   -3.4165 H   0  0  0  0  0
   -3.9849  -21.0850   -4.7464 H   0  0  0  0  0
   -5.9677  -21.8191   -6.2934 H   0  0  0  0  0
   -7.0710  -19.4116   -3.5143 H   0  0  0  0  0
   -6.6918  -18.6580  -11.0703 H   0  0  0  0  0
   -6.4656  -20.7601   -8.2352 H   0  0  0  0  0
  1  2  2  0  0  0
  1  3  1  0  0  0
  1  4  1  0  0  0
  1  5  1  0  0  0
  5  6  1  0  0  0
  6  7  1  0  0  0
  6  8  2  0  0  0
  6  9  1  0  0  0
  9 10  1  0  0  0
 10 11  1  0  0  0
 11 12  1  0  0  0
 11 13  1  0  0  0
 12 17  1  0  0  0
 13 14  1  0  0  0
 13 15  1  0  0  0
 15 16  1  0  0  0
 15 17  1  0  0  0
 17 18  1  0  0  0
 18 19  4  0  0  0
 18 28  4  0  0  0
 19 20  4  0  0  0
 20 21  4  0  0  0
 21 22  1  0  0  0
 21 28  4  0  0  0
 22 23  2  0  0  0
 22 24  1  0  0  0
 24 25  4  0  0  0
 25 26  2  0  0  0
 25 27  1  0  0  0
 27 28  1  0  0  0
  3 29  1  0  0  0
  4 30  1  0  0  0
  7 31  1  0  0  0
 10 32  1  0  0  0
 10 33  1  0  0  0
 11 34  1  0  0  0
 13 35  1  0  0  0
 14 36  1  0  0  0
 15 37  1  0  0  0
 16 38  1  0  0  0
 17 39  1  0  0  0
 19 40  1  0  0  0
 26 41  1  0  0  0
 27 42  1  0  0  0
M  END
$$$$
