4p4s_ligand
  -I-interpret- 

 49 51  0  0  0  0  0  0  0  0999 V2000
   31.2620   -2.2650   -0.8250 P   0  0  0  0  0
   31.3860   -2.1310   -2.4320 O   0  0  0  0  0
   31.1040   -0.9040   -0.2930 O   0  0  0  0  0
   32.6540   -2.8820   -0.3260 O   0  0  0  0  0
   29.8940   -3.3940   -0.2780 C   0  0  0  0  0
   28.2560   -2.9360   -0.9230 P   0  0  0  0  0
   28.2300   -3.0110   -2.4340 O   0  0  0  0  0
   27.8300   -1.4370   -0.4440 O   0  0  0  0  0
   27.1860   -3.9730   -0.3960 O   0  0  0  0  0
   27.2430   -5.4850   -0.8950 P   0  0  0  0  0
   26.5160   -5.5210   -2.2160 O   0  0  0  0  0
   28.6590   -5.9360   -0.5770 O   0  0  0  0  0
   26.3870   -6.2610    0.2200 O   0  0  0  0  0
   26.6760   -5.8900    1.5840 C   0  0  0  0  0
   26.5050   -7.0060    2.5750 C   0  0  0  0  0
   25.2850   -6.8210    3.2830 O   0  0  0  0  0
   26.4010   -8.3710    1.9860 C   0  0  0  0  0
   27.0190   -9.2760    2.8960 O   0  0  0  0  0
   24.9080   -8.6800    1.8890 C   0  0  0  0  0
   24.5150  -10.0570    2.1110 O   0  0  0  0  0
   24.2970   -7.7930    2.9510 C   0  0  0  0  0
   23.0200   -7.2450    2.4250 N   0  0  0  0  0
   22.8170   -6.5640    1.3010 C   0  0  0  0  0
   21.5110   -6.2620    1.1880 N   0  0  0  0  0
   20.8490   -6.7920    2.2360 C   0  0  0  0  0
   19.4350   -6.8930    2.7380 C   0  0  0  0  0
   18.5010   -6.3530    2.0760 O   0  0  0  0  0
   19.2350   -7.5480    3.9120 N   0  0  0  0  0
   20.2510   -8.0990    4.5890 C   0  0  0  0  0
   20.0760   -8.7510    5.7330 N   0  0  0  0  0
   21.5180   -8.0480    4.1800 N   0  0  0  0  0
   21.8730   -7.4220    3.0460 C   0  0  0  0  0
   31.4911   -3.0039   -2.8176 H   0  0  0  0  0
   32.7526   -3.7705   -0.6759 H   0  0  0  0  0
   29.8416   -3.3360    0.8092 H   0  0  0  0  0
   30.1246   -4.3895   -0.6575 H   0  0  0  0  0
   27.8472   -1.3917    0.5148 H   0  0  0  0  0
   28.8394   -5.7876    0.3542 H   0  0  0  0  0
   25.9724   -5.1045    1.8596 H   0  0  0  0  0
   27.7220   -5.5855    1.6198 H   0  0  0  0  0
   27.4034   -6.9585    3.1904 H   0  0  0  0  0
   26.8778   -8.4499    1.0090 H   0  0  0  0  0
   26.9680  -10.1674    2.5433 H   0  0  0  0  0
   24.5722   -8.5004    0.8677 H   0  0  0  0  0
   23.5619  -10.1342    2.0261 H   0  0  0  0  0
   24.0311   -8.3124    3.8717 H   0  0  0  0  0
   23.5898   -6.2923    0.5820 H   0  0  0  0  0
   19.1403   -8.8467    6.1275 H   0  0  0  0  0
   22.2391   -8.4973    4.7444 H   0  0  0  0  0
  1  2  1  0  0  0
  1  3  2  0  0  0
  1  4  1  0  0  0
  1  5  1  0  0  0
  5  6  1  0  0  0
  6  7  2  0  0  0
  6  8  1  0  0  0
  6  9  1  0  0  0
  9 10  1  0  0  0
 10 11  2  0  0  0
 10 12  1  0  0  0
 10 13  1  0  0  0
 13 14  1  0  0  0
 14 15  1  0  0  0
 15 16  1  0  0  0
 15 17  1  0  0  0
 16 21  1  0  0  0
 17 18  1  0  0  0
 17 19  1  0  0  0
 19 20  1  0  0  0
 19 21  1  0  0  0
 21 22  1  0  0  0
 22 23  4  0  0  0
 22 32  4  0  0  0
 23 24  4  0  0  0
 24 25  4  0  0  0
 25 26  1  0  0  0
 25 32  4  0  0  0
 26 27  2  0  0  0
 26 28  1  0  0  0
 28 29  4  0  0  0
 29 30  2  0  0  0
 29 31  1  0  0  0
 31 32  1  0  0  0
  2 33  1  0  0  0
  4 34  1  0  0  0
  5 35  1  0  0  0
  5 36  1  0  0  0
  8 37  1  0  0  0
 12 38  1  0  0  0
 14 39  1  0  0  0
 14 40  1  0  0  0
 15 41  1  0  0  0
 17 42  1  0  0  0
 18 43  1  0  0  0
 19 44  1  0  0  0
 20 45  1  0  0  0
 21 46  1  0  0  0
 23 47  1  0  0  0
 30 48  1  0  0  0
 31 49  1  0  0  0
M  END
$$$$
