4p4t_ligand
  -I-interpret- 

 42 44  0  0  0  0  0  0  0  0999 V2000
    9.2350   11.4800   85.5980 P   0  0  0  0  0
    7.8290   11.3000   85.0650 O   0  0  0  0  0
   10.0470   10.2110   85.5730 O   0  0  0  0  0
    9.9370   12.7180   85.1150 O   0  0  0  0  0
    8.9130   11.8400   87.1290 O   0  0  0  0  0
    9.6450   11.2670   88.4530 P   0  0  0  0  0
   11.0600   11.7850   88.4190 O   0  0  0  0  0
    9.3990    9.7980   88.6870 O   0  0  0  0  0
    8.7390   12.0980   89.4960 O   0  0  0  0  0
    8.6430   13.5260   89.4820 C   0  0  0  0  0
    8.6840   14.0060   90.9320 C   0  0  0  0  0
    7.4520   13.7020   91.6000 O   0  0  0  0  0
    9.7990   13.3440   91.7390 C   0  0  0  0  0
   10.4590   14.3980   92.4270 O   0  0  0  0  0
    9.1150   12.4200   92.7330 C   0  0  0  0  0
    9.7270   12.4410   94.0400 O   0  0  0  0  0
    7.7080   12.9960   92.8100 C   0  0  0  0  0
    6.6650   11.9700   93.0190 N   0  0  0  0  0
    6.4020   10.8900   92.2470 C   0  0  0  0  0
    5.3580   10.1740   92.7500 N   0  0  0  0  0
    4.9410   10.8120   93.8690 C   0  0  0  0  0
    3.8850   10.6060   94.8960 C   0  0  0  0  0
    3.1050    9.6270   94.8240 O   0  0  0  0  0
    3.7900   11.5020   95.8970 N   0  0  0  0  0
    4.6140   12.5660   96.0020 C   0  0  0  0  0
    4.4500   13.4130   97.0430 N   0  0  0  0  0
    5.5990   12.8250   95.0980 N   0  0  0  0  0
    5.8020   11.9970   94.0370 C   0  0  0  0  0
    7.4546   10.4904   85.4200 H   0  0  0  0  0
    9.5118    9.4835   85.8985 H   0  0  0  0  0
    8.4542    9.6279   88.6806 H   0  0  0  0  0
    7.7153   13.8400   89.0036 H   0  0  0  0  0
    9.4683   13.9570   88.9153 H   0  0  0  0  0
    8.8586   15.0807   90.8814 H   0  0  0  0  0
   10.5095   12.7811   91.1337 H   0  0  0  0  0
   11.1748   14.0356   92.9542 H   0  0  0  0  0
    9.1673   11.3777   92.4184 H   0  0  0  0  0
    9.2552   11.8414   94.6227 H   0  0  0  0  0
    7.6637   13.6551   93.6770 H   0  0  0  0  0
    6.9522   10.6280   91.3433 H   0  0  0  0  0
    3.7150   13.2415   97.7292 H   0  0  0  0  0
    6.1904   13.6475   95.2172 H   0  0  0  0  0
  1  2  1  0  0  0
  1  3  1  0  0  0
  1  4  2  0  0  0
  1  5  1  0  0  0
  5  6  1  0  0  0
  6  7  2  0  0  0
  6  8  1  0  0  0
  6  9  1  0  0  0
  9 10  1  0  0  0
 10 11  1  0  0  0
 11 12  1  0  0  0
 11 13  1  0  0  0
 12 17  1  0  0  0
 13 14  1  0  0  0
 13 15  1  0  0  0
 15 16  1  0  0  0
 15 17  1  0  0  0
 17 18  1  0  0  0
 18 19  4  0  0  0
 18 28  4  0  0  0
 19 20  4  0  0  0
 20 21  4  0  0  0
 21 22  1  0  0  0
 21 28  4  0  0  0
 22 23  2  0  0  0
 22 24  1  0  0  0
 24 25  4  0  0  0
 25 26  2  0  0  0
 25 27  1  0  0  0
 27 28  1  0  0  0
  2 29  1  0  0  0
  3 30  1  0  0  0
  8 31  1  0  0  0
 10 32  1  0  0  0
 10 33  1  0  0  0
 11 34  1  0  0  0
 13 35  1  0  0  0
 14 36  1  0  0  0
 15 37  1  0  0  0
 16 38  1  0  0  0
 17 39  1  0  0  0
 19 40  1  0  0  0
 26 41  1  0  0  0
 27 42  1  0  0  0
M  END
$$$$
