4r07_ligand
  -I-interpret- 

 70 75  0  0  0  0  0  0  0  0999 V2000
   26.9720   -8.4930   37.5540 O   0  0  0  0  0
   27.9360   -7.8920   38.0130 C   0  0  0  0  0
   27.7750   -7.1870   39.1900 C   0  0  0  0  0
   28.8390   -6.5110   39.7520 C   0  0  0  0  0
   29.1140   -7.9270   37.4310 N   0  0  0  0  0
   30.1230   -7.2760   37.9670 C   0  0  0  0  0
   31.1930   -7.3290   37.4230 O   0  0  0  0  0
   30.0210   -6.5470   39.1590 N   0  0  0  0  0
   31.1660   -5.8080   39.7080 C   0  0  0  0  0
   30.8520   -4.3240   39.8220 C   0  0  0  0  0
   31.9860   -3.5820   39.5060 O   0  0  0  0  0
   31.5280   -6.2220   41.0090 O   0  0  0  0  0
   31.4730   -5.1360   41.9350 C   0  0  0  0  0
   30.9550   -5.6320   43.2730 C   0  0  0  0  0
   29.7020   -5.0740   43.5950 O   0  0  0  0  0
   28.4430   -5.9090   44.0450 P   0  0  0  0  0
   28.9170   -7.2290   44.4470 O   0  0  0  0  0
   27.6990   -5.2370   45.2750 O   0  0  0  0  0
   27.4030   -5.9650   42.8370 O   0  0  0  0  0
   30.6270   -4.0640   41.2740 C   0  0  0  0  0
   31.0800   -2.8050   41.6890 O   0  0  0  0  0
   30.2190   -1.4880   41.6050 P   0  0  0  0  0
   31.0670   -0.4500   42.1140 O   0  0  0  0  0
   29.7490   -1.2850   40.1320 O   0  0  0  0  0
   28.9020   -1.6920   42.4430 O   0  0  0  0  0
   28.8920   -1.8880   43.8340 C   0  0  0  0  0
   27.5040   -1.5670   44.3600 C   0  0  0  0  0
   26.4290   -2.1270   43.4630 C   0  0  0  0  0
   23.9940   -2.4300   43.4400 P   0  0  0  0  0
   23.6970   -3.4860   42.3300 O   0  0  0  0  0
   22.9050   -2.2010   44.3320 O   0  0  0  0  0
   24.4570   -1.1630   42.6850 O   0  0  0  0  0
   25.3680   -2.7030   44.1630 O   0  0  0  0  0
   25.8060   -0.9140   42.8630 C   0  0  0  0  0
   27.2960   -0.1770   44.3700 O   0  0  0  0  0
   26.0000    0.0820   43.9490 C   0  0  0  0  0
   25.9190    1.4110   43.4010 N   0  0  0  0  0
   25.1950    2.3850   43.8910 C   0  0  0  0  0
   25.3220    3.4890   43.1770 N   0  0  0  0  0
   26.5520    1.8550   42.3570 C   0  0  0  0  0
   26.1450    3.2170   42.2030 C   0  0  0  0  0
   27.3980    1.3420   41.4780 N   0  0  0  0  0
   27.8770    2.0760   40.4730 C   0  0  0  0  0
   28.7290    1.5110   39.6250 N   0  0  0  0  0
   27.5340    3.3440   40.3040 N   0  0  0  0  0
   26.7050    3.9560   41.0910 C   0  0  0  0  0
   26.4060    5.1110   40.9290 O   0  0  0  0  0
   26.8008   -7.1644   39.6783 H   0  0  0  0  0
   28.7063   -5.9514   40.6779 H   0  0  0  0  0
   29.2447   -8.4560   36.5687 H   0  0  0  0  0
   31.9811   -6.0085   39.0126 H   0  0  0  0  0
   30.0133   -4.0657   39.1755 H   0  0  0  0  0
   31.7852   -2.6461   39.5787 H   0  0  0  0  0
   32.4475   -4.7050   42.1645 H   0  0  0  0  0
   31.6670   -5.3375   44.0440 H   0  0  0  0  0
   30.8404   -6.7143   43.2136 H   0  0  0  0  0
   27.3831   -4.3671   45.0200 H   0  0  0  0  0
   27.1249   -5.0736   42.6141 H   0  0  0  0  0
   29.5658   -4.0824   41.5221 H   0  0  0  0  0
   29.1890   -2.0201   39.8718 H   0  0  0  0  0
   29.6270   -1.2357   44.3055 H   0  0  0  0  0
   29.1454   -2.9228   44.0643 H   0  0  0  0  0
   27.4473   -2.0011   45.3582 H   0  0  0  0  0
   26.8749   -2.8672   42.7986 H   0  0  0  0  0
   24.4707   -3.5871   41.7708 H   0  0  0  0  0
   26.2143   -0.6038   41.9012 H   0  0  0  0  0
   25.2610    0.0166   44.7475 H   0  0  0  0  0
   24.5662    2.2963   44.7769 H   0  0  0  0  0
   27.6886    0.3687   41.5708 H   0  0  0  0  0
   29.1135    2.0531   38.8513 H   0  0  0  0  0
  2  1  2  0  0  0
  3  2  1  0  0  0
  5  2  1  0  0  0
  4  3  2  0  0  0
  8  4  1  0  0  0
  6  5  1  0  0  0
  6  7  2  0  0  0
  8  6  1  0  0  0
  9  8  1  0  0  0
 10  9  1  0  0  0
 12  9  1  0  0  0
 10 11  1  0  0  0
 20 10  1  0  0  0
 13 12  1  0  0  0
 13 14  1  0  0  0
 20 13  1  0  0  0
 14 15  1  0  0  0
 15 16  1  0  0  0
 16 17  2  0  0  0
 16 18  1  0  0  0
 16 19  1  0  0  0
 21 20  1  0  0  0
 22 21  1  0  0  0
 22 23  2  0  0  0
 22 24  1  0  0  0
 25 22  1  0  0  0
 26 25  1  0  0  0
 27 26  1  0  0  0
 28 27  1  0  0  0
 27 35  1  0  0  0
 33 28  1  0  0  0
 28 34  1  0  0  0
 29 30  1  0  0  0
 29 31  2  0  0  0
 29 32  1  0  0  0
 29 33  1  0  0  0
 32 34  1  0  0  0
 34 36  1  0  0  0
 35 36  1  0  0  0
 36 37  1  0  0  0
 37 38  4  0  0  0
 37 40  4  0  0  0
 38 39  4  0  0  0
 39 41  4  0  0  0
 40 41  4  0  0  0
 40 42  1  0  0  0
 41 46  1  0  0  0
 42 43  1  0  0  0
 43 44  2  0  0  0
 43 45  4  0  0  0
 45 46  1  0  0  0
 46 47  2  0  0  0
  3 48  1  0  0  0
  4 49  1  0  0  0
  5 50  1  0  0  0
  9 51  1  0  0  0
 10 52  1  0  0  0
 11 53  1  0  0  0
 13 54  1  0  0  0
 14 55  1  0  0  0
 14 56  1  0  0  0
 18 57  1  0  0  0
 19 58  1  0  0  0
 20 59  1  0  0  0
 24 60  1  0  0  0
 26 61  1  0  0  0
 26 62  1  0  0  0
 27 63  1  0  0  0
 28 64  1  0  0  0
 30 65  1  0  0  0
 34 66  1  0  0  0
 36 67  1  0  0  0
 38 68  1  0  0  0
 42 69  1  0  0  0
 44 70  1  0  0  0
M  END
$$$$
