4rd0_ligand
  -I-interpret- 

 42 44  0  0  0  0  0  0  0  0999 V2000
  -29.7330  -17.6060   18.7270 P   0  0  0  0  0
  -30.8720  -16.7030   19.1660 O   0  0  0  0  0
  -29.3720  -17.3490   17.3060 O   0  0  0  0  0
  -28.5610  -17.4090   19.6610 O   0  0  0  0  0
  -30.2450  -19.1290   18.8020 O   0  0  0  0  0
  -30.1220  -20.0740   20.0900 P   0  0  0  0  0
  -28.7710  -20.7320   20.1480 O   0  0  0  0  0
  -30.5330  -19.4060   21.3950 O   0  0  0  0  0
  -31.2250  -21.1830   19.6960 O   0  0  0  0  0
  -32.5970  -20.8330   19.4960 C   0  0  0  0  0
  -33.4000  -22.1260   19.5200 C   0  0  0  0  0
  -32.9820  -22.9380   18.4190 O   0  0  0  0  0
  -33.1260  -22.9380   20.7750 C   0  0  0  0  0
  -34.3450  -23.5870   21.1360 O   0  0  0  0  0
  -32.1280  -23.9870   20.3270 C   0  0  0  0  0
  -32.1850  -25.1780   21.1080 O   0  0  0  0  0
  -32.5500  -24.2110   18.8830 C   0  0  0  0  0
  -31.4140  -24.7270   18.0930 N   0  0  0  0  0
  -30.1710  -24.2100   18.0190 C   0  0  0  0  0
  -29.3920  -24.9600   17.1930 N   0  0  0  0  0
  -30.1560  -25.9680   16.7230 C   0  0  0  0  0
  -29.9660  -27.1170   15.8180 C   0  0  0  0  0
  -28.8560  -27.3050   15.2910 O   0  0  0  0  0
  -31.0080  -27.9330   15.5810 N   0  0  0  0  0
  -32.2130  -27.7330   16.1580 C   0  0  0  0  0
  -33.2310  -28.5890   15.8770 N   0  0  0  0  0
  -32.4580  -26.6970   17.0060 N   0  0  0  0  0
  -31.4840  -25.8050   17.3170 C   0  0  0  0  0
  -31.0880  -16.8853   20.0835 H   0  0  0  0  0
  -28.8390  -17.5848   20.5629 H   0  0  0  0  0
  -31.4001  -19.0076   21.2900 H   0  0  0  0  0
  -32.7268  -20.3184   18.5440 H   0  0  0  0  0
  -32.9380  -20.1550   20.2784 H   0  0  0  0  0
  -34.4560  -21.8593   19.4773 H   0  0  0  0  0
  -32.7626  -22.3458   21.6148 H   0  0  0  0  0
  -34.2050  -24.1104   21.9285 H   0  0  0  0  0
  -31.0890  -23.6775   20.4397 H   0  0  0  0  0
  -31.5349  -25.8046   20.7819 H   0  0  0  0  0
  -33.3441  -24.9517   18.7888 H   0  0  0  0  0
  -29.8370  -23.3167   18.5467 H   0  0  0  0  0
  -33.0794  -29.3695   15.2381 H   0  0  0  0  0
  -33.3869  -26.5896   17.4135 H   0  0  0  0  0
  1  2  1  0  0  0
  1  3  2  0  0  0
  1  4  1  0  0  0
  1  5  1  0  0  0
  5  6  1  0  0  0
  6  7  2  0  0  0
  6  8  1  0  0  0
  6  9  1  0  0  0
  9 10  1  0  0  0
 10 11  1  0  0  0
 11 12  1  0  0  0
 11 13  1  0  0  0
 12 17  1  0  0  0
 13 14  1  0  0  0
 13 15  1  0  0  0
 15 16  1  0  0  0
 15 17  1  0  0  0
 17 18  1  0  0  0
 18 19  4  0  0  0
 18 28  4  0  0  0
 19 20  4  0  0  0
 20 21  4  0  0  0
 21 22  1  0  0  0
 21 28  4  0  0  0
 22 23  2  0  0  0
 22 24  1  0  0  0
 24 25  4  0  0  0
 25 26  2  0  0  0
 25 27  1  0  0  0
 27 28  1  0  0  0
  2 29  1  0  0  0
  4 30  1  0  0  0
  8 31  1  0  0  0
 10 32  1  0  0  0
 10 33  1  0  0  0
 11 34  1  0  0  0
 13 35  1  0  0  0
 14 36  1  0  0  0
 15 37  1  0  0  0
 16 38  1  0  0  0
 17 39  1  0  0  0
 19 40  1  0  0  0
 26 41  1  0  0  0
 27 42  1  0  0  0
M  END
$$$$
