4rd3_ligand
  -I-interpret- 

 42 44  0  0  0  0  0  0  0  0999 V2000
  -30.1160  -17.4470   18.8550 P   0  0  0  0  0
  -31.3010  -16.5850   19.1960 O   0  0  0  0  0
  -29.7560  -17.2090   17.3940 O   0  0  0  0  0
  -28.9420  -17.1320   19.7480 O   0  0  0  0  0
  -30.5060  -18.9890   18.9480 O   0  0  0  0  0
  -30.5090  -19.8300   20.3330 P   0  0  0  0  0
  -29.1300  -20.3550   20.5560 O   0  0  0  0  0
  -31.0950  -19.0640   21.4850 O   0  0  0  0  0
  -31.4870  -21.0030   19.8410 O   0  0  0  0  0
  -32.8760  -20.6870   19.6950 C   0  0  0  0  0
  -33.7020  -21.9610   19.6310 C   0  0  0  0  0
  -33.2610  -22.7710   18.5430 O   0  0  0  0  0
  -33.5070  -22.7900   20.8820 C   0  0  0  0  0
  -34.7670  -23.3700   21.2240 O   0  0  0  0  0
  -32.5350  -23.8660   20.4390 C   0  0  0  0  0
  -32.5530  -25.0440   21.2650 O   0  0  0  0  0
  -32.9580  -24.0830   18.9920 C   0  0  0  0  0
  -31.8260  -24.6280   18.2250 N   0  0  0  0  0
  -30.5750  -24.1240   18.1720 C   0  0  0  0  0
  -29.7780  -24.8840   17.3810 N   0  0  0  0  0
  -30.5360  -25.8980   16.9210 C   0  0  0  0  0
  -30.3270  -27.0630   16.0410 C   0  0  0  0  0
  -29.2050  -27.2720   15.5420 O   0  0  0  0  0
  -31.3680  -27.8730   15.8110 N   0  0  0  0  0
  -32.5830  -27.6630   16.3610 C   0  0  0  0  0
  -33.5930  -28.5250   16.0820 N   0  0  0  0  0
  -32.8460  -26.6140   17.1820 N   0  0  0  0  0
  -31.8810  -25.7240   17.4830 C   0  0  0  0  0
  -29.0002  -17.7524   17.1592 H   0  0  0  0  0
  -28.2009  -17.6941   19.5105 H   0  0  0  0  0
  -31.9779  -18.7664   21.2538 H   0  0  0  0  0
  -33.0181  -20.1237   18.7727 H   0  0  0  0  0
  -33.1988  -20.0960   20.5521 H   0  0  0  0  0
  -34.7453  -21.6662   19.5184 H   0  0  0  0  0
  -33.1440  -22.2325   21.7454 H   0  0  0  0  0
  -34.6684  -23.9021   22.0169 H   0  0  0  0  0
  -31.4866  -23.5829   20.5333 H   0  0  0  0  0
  -31.9170  -25.6793   20.9282 H   0  0  0  0  0
  -33.7898  -24.7783   18.8795 H   0  0  0  0  0
  -30.2488  -23.2254   18.6956 H   0  0  0  0  0
  -33.4292  -29.3195   15.4637 H   0  0  0  0  0
  -33.7809  -26.4992   17.5735 H   0  0  0  0  0
  1  2  2  0  0  0
  1  3  1  0  0  0
  1  4  1  0  0  0
  1  5  1  0  0  0
  5  6  1  0  0  0
  6  7  2  0  0  0
  6  8  1  0  0  0
  6  9  1  0  0  0
  9 10  1  0  0  0
 10 11  1  0  0  0
 11 12  1  0  0  0
 11 13  1  0  0  0
 12 17  1  0  0  0
 13 14  1  0  0  0
 13 15  1  0  0  0
 15 16  1  0  0  0
 15 17  1  0  0  0
 17 18  1  0  0  0
 18 19  4  0  0  0
 18 28  4  0  0  0
 19 20  4  0  0  0
 20 21  4  0  0  0
 21 22  1  0  0  0
 21 28  4  0  0  0
 22 23  2  0  0  0
 22 24  1  0  0  0
 24 25  4  0  0  0
 25 26  2  0  0  0
 25 27  1  0  0  0
 27 28  1  0  0  0
  3 29  1  0  0  0
  4 30  1  0  0  0
  8 31  1  0  0  0
 10 32  1  0  0  0
 10 33  1  0  0  0
 11 34  1  0  0  0
 13 35  1  0  0  0
 14 36  1  0  0  0
 15 37  1  0  0  0
 16 38  1  0  0  0
 17 39  1  0  0  0
 19 40  1  0  0  0
 26 41  1  0  0  0
 27 42  1  0  0  0
M  END
$$$$
