4rlp_ligand
  -I-interpret- 

 67 75  0  0  0  0  0  0  0  0999 V2000
   75.9400   30.7380    5.5510 N   0  0  0  0  0
   77.8850   31.8200    7.1920 N   0  0  0  0  0
   75.2890   33.1780    8.9720 C   0  0  0  0  0
   76.2800   27.4510    7.4880 C   0  0  0  0  0
   74.9350   27.6380    8.2070 C   0  0  0  0  0
   73.4080   29.6150    9.3490 C   0  0  0  0  0
   73.5160   27.8850   12.5130 C   0  0  0  0  0
   76.1290   30.7040    7.6560 Ru  0  0  0  0  0
   74.3180   29.3190    7.8540 S   0  0  0  0  0
   76.5730   30.8470    9.9020 S   0  0  0  0  0
   77.4160   28.8330    7.5840 S   0  0  0  0  0
   80.7850   33.5130    8.2970 F   0  0  0  0  0
   75.5340   34.0780   10.2370 S   0  0  0  0  0
   81.0770   33.9880    3.1580 O   0  0  0  0  0
   77.7580   32.1150    0.6300 O   0  0  0  0  0
   73.5300   29.5390    0.6940 O   0  0  0  0  0
   75.0990   32.4050    7.8940 N   0  0  0  0  0
   73.2050   29.2340   11.8480 N   0  0  0  0  0
   79.5500   33.1500    1.6230 N   0  0  0  0  0
   80.0440   33.1970    6.0630 C   0  0  0  0  0
   79.0930   32.6650    5.2200 C   0  0  0  0  0
   79.0570   32.7230    3.8190 C   0  0  0  0  0
   80.0230   33.3610    2.8970 C   0  0  0  0  0
   78.3700   32.4330    1.6390 C   0  0  0  0  0
   78.0780   32.1760    3.0400 C   0  0  0  0  0
   77.0010   31.4830    3.6580 C   0  0  0  0  0
   75.8510   30.8090    3.2220 C   0  0  0  0  0
   75.3410   30.5630    2.0300 C   0  0  0  0  0
   74.1700   29.8610    1.8830 C   0  0  0  0  0
   73.5260   29.4090    2.9900 C   0  0  0  0  0
   74.0480   29.6510    4.3250 C   0  0  0  0  0
   75.2180   30.3580    4.4400 C   0  0  0  0  0
   77.0160   31.4140    5.0340 C   0  0  0  0  0
   78.0210   31.9780    5.8330 C   0  0  0  0  0
   74.1320   29.5560   10.6810 C   0  0  0  0  0
   75.1330   30.6830   10.9680 C   0  0  0  0  0
   77.5700   29.3000   10.3240 C   0  0  0  0  0
   78.1670   28.6880    9.2370 C   0  0  0  0  0
   74.2800   29.8900   -0.5470 C   0  0  0  0  0
   78.8530   32.3560    7.9950 C   0  0  0  0  0
   79.8720   33.0070    7.4570 C   0  0  0  0  0
   76.0477   27.3169    6.4315 H   0  0  0  0  0
   76.7753   26.6116    7.9760 H   0  0  0  0  0
   75.0662   27.5079    9.2812 H   0  0  0  0  0
   74.2181   26.8968    7.8536 H   0  0  0  0  0
   72.6755   28.8091    9.3938 H   0  0  0  0  0
   73.0616   30.6451    9.2653 H   0  0  0  0  0
   73.4113   27.0865   11.7784 H   0  0  0  0  0
   74.5365   27.8968   12.8958 H   0  0  0  0  0
   72.8201   27.7176   13.3351 H   0  0  0  0  0
   73.3297   29.9617   12.5518 H   0  0  0  0  0
   80.0114   33.4805    0.7755 H   0  0  0  0  0
   80.9003   33.7458    5.6709 H   0  0  0  0  0
   75.8606   30.9249    1.1428 H   0  0  0  0  0
   72.5962   28.8519    2.8748 H   0  0  0  0  0
   73.5257   29.2820    5.2077 H   0  0  0  0  0
   74.7933   28.6970   10.5672 H   0  0  0  0  0
   74.5698   31.6058   10.8290 H   0  0  0  0  0
   75.5349   30.4614   11.9567 H   0  0  0  0  0
   78.3710   29.6100   10.9951 H   0  0  0  0  0
   76.8740   28.5793   10.7533 H   0  0  0  0  0
   78.1210   27.6230    9.4647 H   0  0  0  0  0
   79.1330   29.1838    9.1418 H   0  0  0  0  0
   74.4575   30.9652   -0.5709 H   0  0  0  0  0
   75.2339   29.3627   -0.5549 H   0  0  0  0  0
   73.6946   29.5976   -1.4187 H   0  0  0  0  0
   78.7856   32.2473    9.0775 H   0  0  0  0  0
  1 32  4  0  0  0
  1 33  4  0  0  0
  2 34  1  0  0  0
  2 40  1  0  0  0
  3 13  2  0  0  0
 17  3  3  0  0  0
  5  4  1  0  0  0
  4 11  1  0  0  0
  9  6  1  0  0  0
  6 35  1  0  0  0
 18  7  1  0  0  0
 36 10  1  0  0  0
 41 12  1  0  0  0
 23 14  2  0  0  0
 24 15  2  0  0  0
 29 16  1  0  0  0
 16 39  1  0  0  0
 35 18  1  0  0  0
 23 19  1  0  0  0
 24 19  1  0  0  0
 21 20  4  0  0  0
 41 20  4  0  0  0
 21 22  4  0  0  0
 34 21  4  0  0  0
 22 23  1  0  0  0
 22 25  4  0  0  0
 25 24  1  0  0  0
 26 25  4  0  0  0
 26 27  4  0  0  0
 33 26  4  0  0  0
 27 28  4  0  0  0
 32 27  4  0  0  0
 28 29  4  0  0  0
 30 29  4  0  0  0
 31 30  4  0  0  0
 32 31  4  0  0  0
 34 33  4  0  0  0
 35 36  1  0  0  0
 38 37  1  0  0  0
 40 41  4  0  0  0
  9  5  1  0  0  0
 10 37  1  0  0  0
 11 38  1  0  0  0
  8  1  1  0  0  0
  8  2  1  0  0  0
  8 17  1  0  0  0
  8  9  1  0  0  0
  8 10  1  0  0  0
  8 11  1  0  0  0
  4 42  1  0  0  0
  4 43  1  0  0  0
  5 44  1  0  0  0
  5 45  1  0  0  0
  6 46  1  0  0  0
  6 47  1  0  0  0
  7 48  1  0  0  0
  7 49  1  0  0  0
  7 50  1  0  0  0
 18 51  1  0  0  0
 19 52  1  0  0  0
 20 53  1  0  0  0
 28 54  1  0  0  0
 30 55  1  0  0  0
 31 56  1  0  0  0
 35 57  1  0  0  0
 36 58  1  0  0  0
 36 59  1  0  0  0
 37 60  1  0  0  0
 37 61  1  0  0  0
 38 62  1  0  0  0
 38 63  1  0  0  0
 39 64  1  0  0  0
 39 65  1  0  0  0
 39 66  1  0  0  0
 40 67  1  0  0  0
M  END
$$$$
