4v11_ligand
  -I-interpret- 

138138  0  0  0  0  0  0  0  0999 V2000
  -10.7760   -8.1900   80.7080 N   0  3  0  0  0
  -10.3040   -8.0080   79.3420 C   0  0  0  0  0
  -10.9700   -6.7990   78.6920 C   0  0  0  0  0
  -12.1670   -6.5760   78.8730 O   0  0  0  0  0
  -10.5800   -9.2590   78.5220 C   0  0  0  0  0
  -10.4180  -10.4150   79.3250 O   0  0  0  0  0
  -10.1970   -6.0230   77.9400 N   0  0  0  0  0
  -10.7210   -4.8140   77.3180 C   0  0  0  0  0
  -11.2250   -5.0910   75.9130 C   0  0  0  0  0
  -10.6090   -5.8600   75.1760 O   0  0  0  0  0
   -9.6480   -3.7330   77.2440 C   0  0  0  0  0
   -9.1400   -3.3100   78.6050 C   0  0  0  0  0
   -9.9230   -3.3100   79.5840 O   0  0  0  0  0
   -7.9500   -2.9580   78.6820 O   0  0  0  0  0
  -12.3280   -4.4520   75.5360 N   0  0  0  0  0
  -12.7660   -4.4730   74.1420 C   0  0  0  0  0
  -11.8120   -3.6120   73.3290 C   0  0  0  0  0
  -11.6010   -2.4420   73.6450 O   0  0  0  0  0
  -14.1910   -3.9730   74.0060 C   0  0  0  0  0
  -11.2230   -4.2130   72.3000 N   0  0  0  0  0
  -10.2750   -3.5430   71.4050 C   0  0  0  0  0
   -9.7450   -4.5610   70.3930 C   0  0  0  0  0
   -8.6930   -3.8840   69.5170 C   0  0  0  0  0
   -9.1430   -5.6150   71.1370 O   0  0  0  0  0
   -9.9350   -7.0230   70.9920 P   0  0  0  0  0
  -10.1440   -7.3500   69.5590 O   0  0  0  0  0
   -9.0130   -8.1290   71.6810 O   0  0  0  0  0
  -11.3280   -6.8800   71.7560 O   0  0  0  0  0
  -10.8770   -2.3410   70.6760 C   0  0  0  0  0
  -11.8610   -2.4790   69.9640 O   0  0  0  0  0
  -10.2840   -1.1590   70.8540 N   0  0  0  0  0
  -10.7680    0.0300   70.1630 C   0  0  0  0  0
  -10.4520   -0.0030   68.6700 C   0  0  0  0  0
   -9.4910   -0.6490   68.2540 O   0  0  0  0  0
  -10.1680    1.2880   70.7880 C   0  0  0  0  0
  -10.9060    1.7270   72.0490 C   0  0  0  0  0
  -10.3460    3.0050   72.6380 C   0  0  0  0  0
   -9.1060    3.1370   72.6990 O   0  0  0  0  0
  -11.1490    3.8750   73.0350 O   0  0  0  0  0
  -11.2770    0.6850   67.8770 N   0  0  0  0  0
  -11.0480    0.8260   66.4500 C   0  0  0  0  0
  -10.3430    2.1240   66.1000 C   0  0  0  0  0
   -9.6800    2.7350   66.9440 O   0  0  0  0  0
  -10.4830    2.5610   64.8530 N   0  0  0  0  0
   -9.7050    3.7010   64.3830 C   0  0  0  0  0
  -10.1280    5.0020   65.0620 C   0  0  0  0  0
  -11.2280    5.1080   65.6120 O   0  0  0  0  0
   -9.8130    3.8460   62.8570 C   0  0  0  0  0
  -11.2100    4.0660   62.3680 C   0  0  0  0  0
  -11.8680    5.2710   62.5110 N   0  0  0  0  0
  -12.0800    3.2320   61.7520 C   0  0  0  0  0
  -13.0820    5.1680   61.9980 C   0  0  0  0  0
  -13.2350    3.9420   61.5310 N   0  0  0  0  0
   -9.2270    5.9730   65.0260 N   0  0  0  0  0
   -9.4970    7.3220   65.5230 C   0  0  0  0  0
  -10.7570    7.9100   64.8840 C   0  0  0  0  0
  -11.0210    7.6910   63.7060 O   0  0  0  0  0
   -8.3220    8.2520   65.2290 C   0  0  0  0  0
   -7.0310    7.8130   65.9010 C   0  0  0  0  0
   -7.0950    7.0500   66.8910 O   0  0  0  0  0
   -5.9530    8.2610   65.4350 O   0  0  0  0  0
  -11.5110    8.6740   65.6620 N   0  0  0  0  0
  -12.7120    9.3390   65.1610 C   0  0  0  0  0
  -12.5160   10.8490   65.0660 C   0  0  0  0  0
  -13.3570   11.5630   64.5250 O   0  0  0  0  0
  -13.9050    9.0270   66.0580 C   0  0  0  0  0
  -14.3180    7.5640   66.0520 C   0  0  0  0  0
  -15.0610    7.1640   64.7870 C   0  0  0  0  0
  -15.3330    8.0420   63.9370 O   0  0  0  0  0
  -15.3770    5.9630   64.6430 O   0  0  0  0  0
  -11.4060   11.3260   65.6150 N   0  0  0  0  0
  -11.0280   12.7320   65.5150 C   0  0  0  0  0
   -9.5390   12.8770   65.7700 C   0  0  0  0  0
   -8.8490   11.8600   65.8270 O   0  0  0  0  0
  -11.8210   13.5970   66.4960 C   0  0  0  0  0
  -11.8270   13.0410   67.9140 C   0  0  0  0  0
  -10.8480   12.3850   68.3360 O   0  0  0  0  0
  -12.8270   13.2840   68.6260 O   0  0  0  0  0
   -9.0110   13.9820   65.9230 O   0  0  0  0  0
  -10.5857   -7.3456   81.2476 H   0  0  0  0  0
  -11.7800   -8.3697   80.6984 H   0  0  0  0  0
  -10.2917   -8.9817   81.1312 H   0  0  0  0  0
   -9.2289   -7.8311   79.3732 H   0  0  0  0  0
   -9.8785   -9.3018   77.6888 H   0  0  0  0  0
  -11.6039   -9.2233   78.1498 H   0  0  0  0  0
  -10.5946  -11.1972   78.7972 H   0  0  0  0  0
   -9.2200   -6.2779   77.7956 H   0  0  0  0  0
  -11.5493   -4.4705   77.9377 H   0  0  0  0  0
  -10.0906   -2.8579   76.7681 H   0  0  0  0  0
   -8.8044   -4.1401   76.6865 H   0  0  0  0  0
  -10.7875   -3.6168   79.3009 H   0  0  0  0  0
  -12.8754   -3.9407   76.2283 H   0  0  0  0  0
  -12.7517   -5.4978   73.7710 H   0  0  0  0  0
  -14.8556   -4.6105   74.5891 H   0  0  0  0  0
  -14.2521   -2.9490   74.3744 H   0  0  0  0  0
  -14.4861   -4.0013   72.9571 H   0  0  0  0  0
  -11.4426   -5.1934   72.1237 H   0  0  0  0  0
   -9.4654   -3.1506   72.0203 H   0  0  0  0  0
  -10.5426   -4.9448   69.7569 H   0  0  0  0  0
   -9.1457   -3.0427   68.9923 H   0  0  0  0  0
   -7.8760   -3.5260   70.1435 H   0  0  0  0  0
   -8.3091   -4.6018   68.7921 H   0  0  0  0  0
   -8.8854   -7.9066   72.6061 H   0  0  0  0  0
  -11.1656   -6.6690   72.6783 H   0  0  0  0  0
   -9.4827   -1.0865   71.4809 H   0  0  0  0  0
  -11.8523    0.0458   70.2735 H   0  0  0  0  0
  -10.2437    2.0937   70.0578 H   0  0  0  0  0
   -9.1369    1.0663   71.0632 H   0  0  0  0  0
  -10.7955    0.9385   72.7934 H   0  0  0  0  0
  -11.9468    1.9094   71.7816 H   0  0  0  0  0
  -12.0475    3.5677   72.8941 H   0  0  0  0  0
  -12.0984    1.1279   68.2888 H   0  0  0  0  0
  -12.0176    0.8250   65.9520 H   0  0  0  0  0
  -10.4127    0.0008   66.1281 H   0  0  0  0  0
  -11.1370    2.0973   64.2224 H   0  0  0  0  0
   -8.6661    3.5072   64.6497 H   0  0  0  0  0
   -9.4575    2.9146   62.4163 H   0  0  0  0  0
   -9.2275    4.7200   62.5715 H   0  0  0  0  0
  -11.8982    2.1918   61.4819 H   0  0  0  0  0
  -13.8298    5.9604   61.9659 H   0  0  0  0  0
   -8.3066    5.7713   64.6354 H   0  0  0  0  0
   -9.6451    7.2415   66.5999 H   0  0  0  0  0
   -8.5767    9.2393   65.6143 H   0  0  0  0  0
   -8.1543    8.2433   64.1520 H   0  0  0  0  0
   -6.1412    8.8230   64.6798 H   0  0  0  0  0
  -11.2452    8.8014   66.6385 H   0  0  0  0  0
  -12.9058    8.9580   64.1583 H   0  0  0  0  0
  -14.7508    9.6031   65.6827 H   0  0  0  0  0
  -13.6158    9.2769   67.0788 H   0  0  0  0  0
  -14.9883    7.4038   66.8965 H   0  0  0  0  0
  -13.4113    6.9619   66.1100 H   0  0  0  0  0
  -15.0038    8.8915   64.2395 H   0  0  0  0  0
  -10.7955   10.6874   66.1248 H   0  0  0  0  0
  -11.2615   13.0787   64.5083 H   0  0  0  0  0
  -12.8537   13.6293   66.1488 H   0  0  0  0  0
  -11.3491   14.5791   66.5276 H   0  0  0  0  0
  -10.1906   12.3102   67.6404 H   0  0  0  0  0
   -9.6792   14.6675   65.8504 H   0  0  0  0  0
  1  2  1  0  0  0
  2  3  1  0  0  0
  2  5  1  0  0  0
  3  4  2  0  0  0
  3  7  1  0  0  0
  5  6  1  0  0  0
  7  8  1  0  0  0
  8  9  1  0  0  0
  8 11  1  0  0  0
  9 10  2  0  0  0
  9 15  1  0  0  0
 11 12  1  0  0  0
 12 13  1  0  0  0
 12 14  2  0  0  0
 15 16  1  0  0  0
 16 17  1  0  0  0
 16 19  1  0  0  0
 17 18  2  0  0  0
 17 20  1  0  0  0
 20 21  1  0  0  0
 21 22  1  0  0  0
 21 29  1  0  0  0
 22 23  1  0  0  0
 22 24  1  0  0  0
 24 25  1  0  0  0
 25 26  2  0  0  0
 25 27  1  0  0  0
 25 28  1  0  0  0
 29 30  2  0  0  0
 29 31  1  0  0  0
 31 32  1  0  0  0
 32 33  1  0  0  0
 32 35  1  0  0  0
 33 34  2  0  0  0
 33 40  1  0  0  0
 35 36  1  0  0  0
 36 37  1  0  0  0
 37 38  2  0  0  0
 37 39  1  0  0  0
 40 41  1  0  0  0
 41 42  1  0  0  0
 42 43  2  0  0  0
 42 44  1  0  0  0
 44 45  1  0  0  0
 45 46  1  0  0  0
 45 48  1  0  0  0
 46 47  2  0  0  0
 46 54  1  0  0  0
 48 49  1  0  0  0
 49 50  4  0  0  0
 49 51  4  0  0  0
 50 52  4  0  0  0
 51 53  4  0  0  0
 52 53  4  0  0  0
 54 55  1  0  0  0
 55 56  1  0  0  0
 55 58  1  0  0  0
 56 57  2  0  0  0
 56 62  1  0  0  0
 58 59  1  0  0  0
 59 60  2  0  0  0
 59 61  1  0  0  0
 62 63  1  0  0  0
 63 64  1  0  0  0
 63 66  1  0  0  0
 64 65  2  0  0  0
 64 71  1  0  0  0
 66 67  1  0  0  0
 67 68  1  0  0  0
 68 69  1  0  0  0
 68 70  2  0  0  0
 71 72  1  0  0  0
 72 73  1  0  0  0
 72 75  1  0  0  0
 73 74  2  0  0  0
 73 79  1  0  0  0
 75 76  1  0  0  0
 76 77  1  0  0  0
 76 78  2  0  0  0
  1 80  1  0  0  0
  1 81  1  0  0  0
  1 82  1  0  0  0
  2 83  1  0  0  0
  5 84  1  0  0  0
  5 85  1  0  0  0
  6 86  1  0  0  0
  7 87  1  0  0  0
  8 88  1  0  0  0
 11 89  1  0  0  0
 11 90  1  0  0  0
 13 91  1  0  0  0
 15 92  1  0  0  0
 16 93  1  0  0  0
 19 94  1  0  0  0
 19 95  1  0  0  0
 19 96  1  0  0  0
 20 97  1  0  0  0
 21 98  1  0  0  0
 22 99  1  0  0  0
 23100  1  0  0  0
 23101  1  0  0  0
 23102  1  0  0  0
 27103  1  0  0  0
 28104  1  0  0  0
 31105  1  0  0  0
 32106  1  0  0  0
 35107  1  0  0  0
 35108  1  0  0  0
 36109  1  0  0  0
 36110  1  0  0  0
 39111  1  0  0  0
 40112  1  0  0  0
 41113  1  0  0  0
 41114  1  0  0  0
 44115  1  0  0  0
 45116  1  0  0  0
 48117  1  0  0  0
 48118  1  0  0  0
 51119  1  0  0  0
 52120  1  0  0  0
 54121  1  0  0  0
 55122  1  0  0  0
 58123  1  0  0  0
 58124  1  0  0  0
 61125  1  0  0  0
 62126  1  0  0  0
 63127  1  0  0  0
 66128  1  0  0  0
 66129  1  0  0  0
 67130  1  0  0  0
 67131  1  0  0  0
 69132  1  0  0  0
 71133  1  0  0  0
 72134  1  0  0  0
 75135  1  0  0  0
 75136  1  0  0  0
 77137  1  0  0  0
 79138  1  0  0  0
M  END
$$$$
