5ab0_ligand
  -I-interpret- 

187191  0  0  0  0  0  0  0  0999 V2000
   16.6320    3.5890    3.1400 C   0  0  0  0  0
   15.7400    2.3460    3.2100 C   0  0  0  0  0
   18.3310    4.6300    1.8660 C   0  0  0  0  0
   20.8040    5.6740    1.8120 O   0  0  0  0  0
   20.1000    4.4110    1.8860 P   0  0  0  0  0
   20.5420    3.5090    0.8470 O   0  0  0  0  0
   17.8800    5.2650    0.8450 N   0  3  0  0  0
   17.7100    3.4220    2.0630 C   0  0  0  0  0
   16.0190    1.1890    3.9300 C   0  0  0  0  0
   15.1120    0.1070    3.9300 C   0  0  0  0  0
   13.9360    0.1300    3.2630 C   0  0  0  0  0
   13.6390    1.2960    2.5410 C   0  0  0  0  0
   14.5380    2.3840    2.5280 C   0  0  0  0  0
   21.5380    2.6670    3.1580 C   0  0  0  0  0
   21.2850    1.7090    4.3150 C   0  0  0  0  0
   22.0910    1.6090    5.2070 O   0  0  0  0  0
   22.8890    3.4270    3.4380 C   0  0  0  0  0
   24.1880    2.6410    3.2460 C   0  0  0  0  0
   25.3910    3.5600    3.1520 C   0  0  0  0  0
   24.0250    1.8810    1.9200 C   0  0  0  0  0
   20.4250    3.7410    3.2870 C   0  0  0  0  0
   20.0570    0.9640    4.3340 N   0  0  0  0  0
   19.7840   -0.0250    5.4040 C   0  0  0  0  0
   20.8850   -1.0730    5.4320 C   0  0  0  0  0
   21.0960   -1.7230    6.4530 O   0  0  0  0  0
   18.4160   -0.7160    5.2500 C   0  0  0  0  0
   18.0930   -1.2120    3.8450 C   0  0  0  0  0
   18.7050   -2.5280    3.5390 C   0  0  0  0  0
   18.5170   -2.8510    2.0850 C   0  0  0  0  0
   18.8020   -1.6230    1.2890 N   0  3  0  0  0
   21.5980   -1.2080    4.3140 N   0  0  0  0  0
   22.8930   -1.8610    4.2700 C   0  0  0  0  0
   23.8160   -1.3080    5.3600 C   0  0  0  0  0
   25.0030   -1.1180    5.1260 O   0  0  0  0  0
   23.5530   -1.6800    2.8840 C   0  0  0  0  0
   22.8730   -2.4310    1.7730 C   0  0  0  0  0
   21.6710   -2.0320    1.2270 N   0  0  0  0  0
   23.2330   -3.5560    1.1020 C   0  0  0  0  0
   21.3130   -2.8860    0.2790 C   0  0  0  0  0
   22.2450   -3.8180    0.1800 N   0  0  0  0  0
   23.2630   -1.0640    6.5490 N   0  0  0  0  0
   24.0180   -0.9060    7.7820 C   0  0  0  0  0
   24.9860   -2.0660    7.9420 C   0  0  0  0  0
   25.9290   -1.9650    8.7090 O   0  0  0  0  0
   23.0910   -0.8390    9.0070 C   0  0  0  0  0
   23.7740   -1.1840   10.2960 C   0  0  0  0  0
   24.9010   -0.5170   10.7410 N   0  0  0  0  0
   23.5170   -2.1470   11.2180 C   0  0  0  0  0
   25.2940   -1.0410   11.8910 C   0  0  0  0  0
   24.4700   -2.0300   12.2030 N   0  0  0  0  0
   24.7420   -3.1610    7.2230 N   0  0  0  0  0
   25.6070   -4.3360    7.2610 C   0  0  0  0  0
   26.8610   -4.2570    6.3540 C   0  0  0  0  0
   26.7030   -4.2720    5.1210 O   0  0  0  0  0
   24.7870   -5.6060    6.9100 C   0  0  0  0  0
   28.0970   -4.1600    6.8900 N   0  0  0  0  0
   28.5390   -3.7710    8.2640 C   0  0  0  0  0
   27.6680   -4.1400    9.5060 C   0  0  0  0  0
   27.5210   -3.3420   10.4330 O   0  0  0  0  0
   28.7870   -2.2450    8.2290 C   0  0  0  0  0
   29.6380   -1.6890    9.3690 C   0  0  0  0  0
   31.0220   -1.8850    9.3920 C   0  0  0  0  0
   29.0530   -0.8900   10.3690 C   0  0  0  0  0
   31.8090   -1.3330   10.4190 C   0  0  0  0  0
   29.8180   -0.3350   11.4100 C   0  0  0  0  0
   31.2010   -0.5520   11.4360 C   0  0  0  0  0
   27.0970   -5.3440    9.5320 N   0  0  0  0  0
   26.2050   -5.7140   10.6270 C   0  0  0  0  0
   27.1000   -5.8630   11.8480 C   0  0  0  0  0
   26.9480   -5.1400   12.8440 O   0  0  0  0  0
   25.4230   -7.0000   10.3140 C   0  0  0  0  0
   25.9750   -7.7030    9.2060 O   0  0  0  0  0
   28.0500   -6.7890   11.7330 N   0  0  0  0  0
   29.2270   -6.8420   12.5930 C   0  0  0  0  0
   30.4280   -7.2310   11.7410 C   0  0  0  0  0
   30.6710   -6.6020   10.7030 O   0  0  0  0  0
   29.0300   -7.8190   13.7510 C   0  0  0  0  0
   28.3030   -7.2190   14.9090 C   0  0  0  0  0
   28.5050   -5.9000   15.2460 C   0  0  0  0  0
   27.4090   -7.9610   15.6490 C   0  0  0  0  0
   27.8280   -5.3350   16.2930 C   0  0  0  0  0
   26.7380   -7.4020   16.7020 C   0  0  0  0  0
   26.9400   -6.0920   17.0220 C   0  0  0  0  0
   31.1670   -8.2590   12.1690 N   0  0  0  0  0
   32.3460   -8.7650   11.3880 C   0  0  0  0  0
   33.4880   -9.2270   12.3090 C   0  0  0  0  0
   34.8790   -9.2010   11.6470 C   0  0  0  0  0
   35.0430   -8.1120   10.5730 C   0  0  0  0  0
   35.2340   -8.7100    9.1700 C   0  0  0  0  0
   36.6720   -9.0260    8.9220 N   0  3  0  0  0
   31.9440   -9.8400   10.4020 C   0  0  0  0  0
   30.9920   -9.6430    9.6490 O   0  0  0  0  0
   32.6680  -11.0680   10.3450 N   0  0  0  0  0
   17.1174    3.7293    4.1058 H   0  0  0  0  0
   16.0149    4.4521    2.8902 H   0  0  0  0  0
   18.0859    5.2905    2.6977 H   0  0  0  0  0
   20.4930    6.2539    2.5110 H   0  0  0  0  0
   18.3771    6.1506    0.7500 H   0  0  0  0  0
   18.0220    4.7023    0.0062 H   0  0  0  0  0
   16.8839    5.4447    0.9707 H   0  0  0  0  0
   17.2527    3.0862    1.1323 H   0  0  0  0  0
   18.4406    2.6797    2.3844 H   0  0  0  0  0
   16.9458    1.1171    4.4991 H   0  0  0  0  0
   15.3719   -0.7888    4.4941 H   0  0  0  0  0
   13.2508   -0.7175    3.2851 H   0  0  0  0  0
   12.7042    1.3622    1.9844 H   0  0  0  0  0
   14.2772    3.2797    1.9642 H   0  0  0  0  0
   21.5620    2.1532    2.1970 H   0  0  0  0  0
   22.8616    3.6993    4.4931 H   0  0  0  0  0
   22.9260    4.2405    2.7134 H   0  0  0  0  0
   24.3596    1.9779    4.0939 H   0  0  0  0  0
   25.2675    4.2324    2.3031 H   0  0  0  0  0
   25.4742    4.1426    4.0695 H   0  0  0  0  0
   26.2929    2.9631    3.0161 H   0  0  0  0  0
   23.1651    1.2146    1.9880 H   0  0  0  0  0
   23.8703    2.5943    1.1105 H   0  0  0  0  0
   24.9244    1.2970    1.7245 H   0  0  0  0  0
   19.5205    3.2587    3.6577 H   0  0  0  0  0
   20.7711    4.5173    3.9694 H   0  0  0  0  0
   19.3638    1.1175    3.6017 H   0  0  0  0  0
   19.7603    0.5260    6.3442 H   0  0  0  0  0
   17.6599    0.0281    5.5005 H   0  0  0  0  0
   18.4350   -1.5944    5.8951 H   0  0  0  0  0
   18.4941   -0.4869    3.1369 H   0  0  0  0  0
   17.0112   -1.3246    3.7735 H   0  0  0  0  0
   18.2256   -3.2976    4.1439 H   0  0  0  0  0
   19.7707   -2.4909    3.7649 H   0  0  0  0  0
   17.4941   -3.1823    1.9059 H   0  0  0  0  0
   19.1950   -3.6520    1.7903 H   0  0  0  0  0
   18.6785   -1.8260    0.2971 H   0  0  0  0  0
   18.1595   -0.8816    1.5681 H   0  0  0  0  0
   19.7623   -1.3242    1.4592 H   0  0  0  0  0
   21.2142   -0.8337    3.4462 H   0  0  0  0  0
   22.7358   -2.9249    4.4473 H   0  0  0  0  0
   24.5688   -2.0680    2.9590 H   0  0  0  0  0
   23.4955   -0.6199    2.6370 H   0  0  0  0  0
   24.1372   -4.1428    1.2638 H   0  0  0  0  0
   20.4031   -2.8294   -0.3185 H   0  0  0  0  0
   22.2473   -0.9832    6.5965 H   0  0  0  0  0
   24.5676    0.0333    7.7206 H   0  0  0  0  0
   22.2943   -1.5671    8.8542 H   0  0  0  0  0
   22.7339    0.1874    9.0909 H   0  0  0  0  0
   22.7074   -2.8760   11.1840 H   0  0  0  0  0
   26.1502   -0.7142   12.4811 H   0  0  0  0  0
   23.9179   -3.1788    6.6222 H   0  0  0  0  0
   25.9870   -4.3819    8.2816 H   0  0  0  0  0
   23.9811   -5.7281    7.6337 H   0  0  0  0  0
   24.3662   -5.5004    5.9101 H   0  0  0  0  0
   25.4398   -6.4784    6.9406 H   0  0  0  0  0
   28.8565   -4.3910    6.2495 H   0  0  0  0  0
   29.4160   -4.3912    8.4490 H   0  0  0  0  0
   27.8093   -1.7703    8.3123 H   0  0  0  0  0
   29.3322   -2.0409    7.3075 H   0  0  0  0  0
   31.4964   -2.4720    8.6056 H   0  0  0  0  0
   27.9808   -0.6967   10.3357 H   0  0  0  0  0
   32.8852   -1.5051   10.4336 H   0  0  0  0  0
   29.3392    0.2583   12.1890 H   0  0  0  0  0
   31.8077   -0.1231   12.2335 H   0  0  0  0  0
   27.2842   -6.0105    8.7829 H   0  0  0  0  0
   25.4381   -4.9578   10.7946 H   0  0  0  0  0
   24.3980   -6.7241   10.0664 H   0  0  0  0  0
   25.4709   -7.6495   11.1881 H   0  0  0  0  0
   25.4602   -8.4968    9.0435 H   0  0  0  0  0
   27.9495   -7.4976   11.0062 H   0  0  0  0  0
   29.3951   -5.8619   13.0394 H   0  0  0  0  0
   30.0174   -8.1202   14.1009 H   0  0  0  0  0
   28.4328   -8.6528   13.3819 H   0  0  0  0  0
   29.2114   -5.2991   14.6733 H   0  0  0  0  0
   27.2341   -9.0059   15.3926 H   0  0  0  0  0
   27.9920   -4.2881   16.5485 H   0  0  0  0  0
   26.0415   -8.0041   17.2855 H   0  0  0  0  0
   26.3981   -5.6446   17.8552 H   0  0  0  0  0
   30.9238   -8.7122   13.0498 H   0  0  0  0  0
   32.7295   -7.9264   10.8068 H   0  0  0  0  0
   33.2814  -10.2610   12.5853 H   0  0  0  0  0
   33.5198   -8.5388   13.1537 H   0  0  0  0  0
   35.0200  -10.1633   11.1548 H   0  0  0  0  0
   35.6059   -8.9920   12.4319 H   0  0  0  0  0
   35.9283   -7.5244   10.8162 H   0  0  0  0  0
   34.1385   -7.5038   10.5637 H   0  0  0  0  0
   34.9001   -7.9837    8.4290 H   0  0  0  0  0
   34.6536   -9.6297    9.0971 H   0  0  0  0  0
   36.7758   -9.4209    7.9873 H   0  0  0  0  0
   37.2241   -8.1714    8.9946 H   0  0  0  0  0
   36.9950   -9.7008    9.6153 H   0  0  0  0  0
   32.3970  -11.7893    9.6766 H   0  0  0  0  0
   33.4566  -11.2247   10.9726 H   0  0  0  0  0
  1  2  1  0  0  0
  8  1  1  0  0  0
  2  9  4  0  0  0
  2 13  4  0  0  0
  5  3  1  0  0  0
  3  7  1  0  0  0
  3  8  1  0  0  0
  5  4  1  0  0  0
  5  6  2  0  0  0
 21  5  1  0  0  0
  9 10  4  0  0  0
 10 11  4  0  0  0
 12 11  4  0  0  0
 13 12  4  0  0  0
 14 15  1  0  0  0
 14 17  1  0  0  0
 14 21  1  0  0  0
 15 16  2  0  0  0
 15 22  1  0  0  0
 17 18  1  0  0  0
 18 19  1  0  0  0
 18 20  1  0  0  0
 22 23  1  0  0  0
 23 24  1  0  0  0
 23 26  1  0  0  0
 24 25  2  0  0  0
 24 31  1  0  0  0
 26 27  1  0  0  0
 27 28  1  0  0  0
 28 29  1  0  0  0
 29 30  1  0  0  0
 31 32  1  0  0  0
 32 33  1  0  0  0
 32 35  1  0  0  0
 33 34  2  0  0  0
 33 41  1  0  0  0
 35 36  1  0  0  0
 36 37  4  0  0  0
 36 38  4  0  0  0
 37 39  4  0  0  0
 38 40  4  0  0  0
 39 40  4  0  0  0
 41 42  1  0  0  0
 42 43  1  0  0  0
 42 45  1  0  0  0
 43 44  2  0  0  0
 43 51  1  0  0  0
 45 46  1  0  0  0
 46 47  4  0  0  0
 46 48  4  0  0  0
 47 49  4  0  0  0
 48 50  4  0  0  0
 49 50  4  0  0  0
 51 52  1  0  0  0
 52 53  1  0  0  0
 52 55  1  0  0  0
 53 54  2  0  0  0
 53 56  1  0  0  0
 56 57  1  0  0  0
 57 58  1  0  0  0
 57 60  1  0  0  0
 58 59  2  0  0  0
 58 67  1  0  0  0
 60 61  1  0  0  0
 61 62  4  0  0  0
 61 63  4  0  0  0
 62 64  4  0  0  0
 63 65  4  0  0  0
 64 66  4  0  0  0
 65 66  4  0  0  0
 67 68  1  0  0  0
 68 69  1  0  0  0
 68 71  1  0  0  0
 69 70  2  0  0  0
 69 73  1  0  0  0
 71 72  1  0  0  0
 73 74  1  0  0  0
 74 75  1  0  0  0
 74 77  1  0  0  0
 75 76  2  0  0  0
 75 84  1  0  0  0
 77 78  1  0  0  0
 78 79  4  0  0  0
 78 80  4  0  0  0
 79 81  4  0  0  0
 80 82  4  0  0  0
 81 83  4  0  0  0
 82 83  4  0  0  0
 84 85  1  0  0  0
 85 86  1  0  0  0
 85 91  1  0  0  0
 86 87  1  0  0  0
 87 88  1  0  0  0
 88 89  1  0  0  0
 89 90  1  0  0  0
 91 92  2  0  0  0
 91 93  1  0  0  0
  1 94  1  0  0  0
  1 95  1  0  0  0
  3 96  1  0  0  0
  4 97  1  0  0  0
  7 98  1  0  0  0
  7 99  1  0  0  0
  7100  1  0  0  0
  8101  1  0  0  0
  8102  1  0  0  0
  9103  1  0  0  0
 10104  1  0  0  0
 11105  1  0  0  0
 12106  1  0  0  0
 13107  1  0  0  0
 14108  1  0  0  0
 17109  1  0  0  0
 17110  1  0  0  0
 18111  1  0  0  0
 19112  1  0  0  0
 19113  1  0  0  0
 19114  1  0  0  0
 20115  1  0  0  0
 20116  1  0  0  0
 20117  1  0  0  0
 21118  1  0  0  0
 21119  1  0  0  0
 22120  1  0  0  0
 23121  1  0  0  0
 26122  1  0  0  0
 26123  1  0  0  0
 27124  1  0  0  0
 27125  1  0  0  0
 28126  1  0  0  0
 28127  1  0  0  0
 29128  1  0  0  0
 29129  1  0  0  0
 30130  1  0  0  0
 30131  1  0  0  0
 30132  1  0  0  0
 31133  1  0  0  0
 32134  1  0  0  0
 35135  1  0  0  0
 35136  1  0  0  0
 38137  1  0  0  0
 39138  1  0  0  0
 41139  1  0  0  0
 42140  1  0  0  0
 45141  1  0  0  0
 45142  1  0  0  0
 48143  1  0  0  0
 49144  1  0  0  0
 51145  1  0  0  0
 52146  1  0  0  0
 55147  1  0  0  0
 55148  1  0  0  0
 55149  1  0  0  0
 56150  1  0  0  0
 57151  1  0  0  0
 60152  1  0  0  0
 60153  1  0  0  0
 62154  1  0  0  0
 63155  1  0  0  0
 64156  1  0  0  0
 65157  1  0  0  0
 66158  1  0  0  0
 67159  1  0  0  0
 68160  1  0  0  0
 71161  1  0  0  0
 71162  1  0  0  0
 72163  1  0  0  0
 73164  1  0  0  0
 74165  1  0  0  0
 77166  1  0  0  0
 77167  1  0  0  0
 79168  1  0  0  0
 80169  1  0  0  0
 81170  1  0  0  0
 82171  1  0  0  0
 83172  1  0  0  0
 84173  1  0  0  0
 85174  1  0  0  0
 86175  1  0  0  0
 86176  1  0  0  0
 87177  1  0  0  0
 87178  1  0  0  0
 88179  1  0  0  0
 88180  1  0  0  0
 89181  1  0  0  0
 89182  1  0  0  0
 90183  1  0  0  0
 90184  1  0  0  0
 90185  1  0  0  0
 93186  1  0  0  0
 93187  1  0  0  0
M  END
$$$$
