5agi_ligand
  -I-interpret- 

 50 55  0  0  0  0  0  0  0  0999 V2000
  -16.1190    0.4510   -9.8050 C   0  0  0  0  0
  -17.0960   -0.6540   -9.5250 C   0  0  0  0  0
  -17.4560   -1.1930   -8.2940 C   0  0  0  0  0
  -17.6410   -1.1040  -10.6910 C   0  0  0  0  0
  -18.3950   -2.2260   -8.2750 C   0  0  0  0  0
  -18.5700   -2.1390  -10.6920 C   0  0  0  0  0
  -18.9480   -2.6980   -9.4690 C   0  0  0  0  0
  -21.4300   -2.0920  -16.9900 P   0  0  0  0  0
  -22.7670   -1.9800  -16.2970 O   0  0  0  0  0
  -21.1300   -3.4700  -17.5270 O   0  0  0  0  0
  -21.1440   -0.9710  -17.9580 O   0  0  0  0  0
  -15.4910   -1.1960  -16.3620 N   0  0  0  0  0
  -15.4110    0.0720  -16.8000 C   0  0  0  0  0
  -14.6700    0.1080  -17.9280 N   0  0  0  0  0
  -14.2880   -1.1520  -18.2030 C   0  0  0  0  0
  -13.5250   -1.7210  -19.2160 C   0  0  0  0  0
  -13.0020   -0.9480  -20.1940 N   0  0  0  0  0
  -13.3110   -3.0550  -19.2160 N   0  0  0  0  0
  -13.8250   -3.8280  -18.2470 C   0  0  0  0  0
  -14.5660   -3.3040  -17.2560 N   0  0  0  0  0
  -14.8090   -1.9690  -17.2120 C   0  0  0  0  0
  -20.3580   -1.9280  -15.7980 O   0  0  0  0  0
  -19.6500   -0.7220  -15.5080 C   0  0  0  0  0
  -18.4500   -1.1320  -14.6720 C   0  0  0  0  0
  -17.5800   -1.9480  -15.4680 O   0  0  0  0  0
  -17.6080    0.0100  -14.1300 C   0  0  0  0  0
  -17.9250    0.3560  -12.7860 O   0  0  0  0  0
  -16.2440   -0.6350  -14.0540 C   0  0  0  0  0
  -16.2390   -1.1750  -12.7350 O   0  0  0  0  0
  -16.2120   -1.6840  -15.1510 C   0  0  0  0  0
  -18.7720   -2.7760   -7.1060 F   0  0  0  0  0
  -16.2500    0.6040  -11.2300 O   0  0  0  0  0
  -17.0830   -0.3660  -11.9190 B   0  0  0  0  0
  -15.1024    0.2230   -9.4846 H   0  0  0  0  0
  -16.3271    1.3654   -9.2494 H   0  0  0  0  0
  -17.0168   -0.8189   -7.3692 H   0  0  0  0  0
  -18.9939   -2.5059  -11.6268 H   0  0  0  0  0
  -19.6783   -3.5068   -9.4455 H   0  0  0  0  0
  -22.8798   -2.7231  -15.6997 H   0  0  0  0  0
  -21.3366   -4.1254  -16.8567 H   0  0  0  0  0
  -15.8718    0.9354  -16.3201 H   0  0  0  0  0
  -13.1665    0.0587  -20.1913 H   0  0  0  0  0
  -12.4429   -1.3714  -20.9347 H   0  0  0  0  0
  -13.6378   -4.9017  -18.2641 H   0  0  0  0  0
  -20.2809   -0.0129  -14.9721 H   0  0  0  0  0
  -19.3399   -0.2165  -16.4226 H   0  0  0  0  0
  -18.8755   -1.6513  -13.8133 H   0  0  0  0  0
  -17.7284    0.9053  -14.7400 H   0  0  0  0  0
  -15.3730    0.0026  -14.2053 H   0  0  0  0  0
  -15.6820   -2.5763  -14.8178 H   0  0  0  0  0
  2  1  1  0  0  0
  1 32  1  0  0  0
  2  3  4  0  0  0
  4  2  4  0  0  0
  3  5  4  0  0  0
  4  6  4  0  0  0
 33  4  1  0  0  0
  7  5  4  0  0  0
  5 31  1  0  0  0
  6  7  4  0  0  0
  8  9  1  0  0  0
  8 10  1  0  0  0
  8 11  2  0  0  0
 22  8  1  0  0  0
 12 13  4  0  0  0
 12 21  4  0  0  0
 30 12  1  0  0  0
 13 14  4  0  0  0
 15 14  4  0  0  0
 15 16  4  0  0  0
 21 15  4  0  0  0
 16 17  1  0  0  0
 16 18  4  0  0  0
 19 18  4  0  0  0
 20 19  4  0  0  0
 21 20  4  0  0  0
 23 22  1  0  0  0
 24 23  1  0  0  0
 24 25  1  0  0  0
 26 24  1  0  0  0
 25 30  1  0  0  0
 27 26  1  0  0  0
 26 28  1  0  0  0
 27 33  1  0  0  0
 28 29  1  0  0  0
 28 30  1  0  0  0
 29 33  1  0  0  0
 32 33  1  0  0  0
  1 34  1  0  0  0
  1 35  1  0  0  0
  3 36  1  0  0  0
  6 37  1  0  0  0
  7 38  1  0  0  0
  9 39  1  0  0  0
 10 40  1  0  0  0
 13 41  1  0  0  0
 17 42  1  0  0  0
 17 43  1  0  0  0
 19 44  1  0  0  0
 23 45  1  0  0  0
 23 46  1  0  0  0
 24 47  1  0  0  0
 26 48  1  0  0  0
 28 49  1  0  0  0
 30 50  1  0  0  0
M  END
$$$$
