5agj_ligand
  -I-interpret- 

 50 55  0  0  0  0  0  0  0  0999 V2000
   26.5010   58.8790    9.9720 C   0  0  0  0  0
   25.5270   59.9950    9.6710 C   0  0  0  0  0
   25.1390   60.5180    8.4430 C   0  0  0  0  0
   24.9740   60.5040   10.9160 C   0  0  0  0  0
   24.2050   61.5530    8.4150 C   0  0  0  0  0
   24.0300   61.5460   10.8720 C   0  0  0  0  0
   23.6550   62.0730    9.6130 C   0  0  0  0  0
   21.3910   61.7540   17.3110 P   0  0  0  0  0
   21.5580   60.5680   18.2340 O   0  0  0  0  0
   20.2030   61.6600   16.3930 O   0  0  0  0  0
   21.6450   63.0990   17.9720 O   0  0  0  0  0
   27.1500   60.5760   16.5510 N   0  0  0  0  0
   27.1520   59.2990   16.9880 C   0  0  0  0  0
   27.8290   59.2050   18.1530 N   0  0  0  0  0
   28.2590   60.4520   18.4610 C   0  0  0  0  0
   29.0270   61.0430   19.5630 C   0  0  0  0  0
   29.4780   60.2510   20.5690 N   0  0  0  0  0
   29.2640   62.3700   19.5340 N   0  0  0  0  0
   28.8120   63.1430   18.5280 C   0  0  0  0  0
   28.0940   62.6680   17.4970 N   0  0  0  0  0
   27.7990   61.3470   17.4210 C   0  0  0  0  0
   22.7140   61.6360   16.3830 O   0  0  0  0  0
   23.0850   60.3830   15.7810 C   0  0  0  0  0
   24.2500   60.6710   14.8470 C   0  0  0  0  0
   25.1830   61.4680   15.5870 O   0  0  0  0  0
   24.9920   59.4410   14.3430 C   0  0  0  0  0
   24.6620   59.0850   13.0070 O   0  0  0  0  0
   26.4070   59.9440   14.2800 C   0  0  0  0  0
   26.5220   60.3880   12.9440 O   0  0  0  0  0
   26.5110   61.0700   15.3070 C   0  0  0  0  0
   23.8420   62.0400    7.2110 F   0  0  0  0  0
   26.3540   58.7180   11.4010 O   0  0  0  0  0
   25.5670   59.7410   12.1220 B   0  0  0  0  0
   27.5227   59.1086    9.6694 H   0  0  0  0  0
   26.2925   57.9661    9.4141 H   0  0  0  0  0
   25.5582   60.1253    7.5166 H   0  0  0  0  0
   23.5953   61.9403   11.7905 H   0  0  0  0  0
   22.9341   62.8891    9.5643 H   0  0  0  0  0
   22.3325   60.6999   18.7857 H   0  0  0  0  0
   22.4234   63.0379   18.5305 H   0  0  0  0  0
   26.6758   58.4637   16.4746 H   0  0  0  0  0
   29.2826   59.2500   20.5567 H   0  0  0  0  0
   30.0123   60.6569   21.3372 H   0  0  0  0  0
   29.0405   64.2085   18.5517 H   0  0  0  0  0
   22.2464   59.9534   15.2329 H   0  0  0  0  0
   23.3696   59.6569   16.5425 H   0  0  0  0  0
   23.8384   61.1586   13.9633 H   0  0  0  0  0
   24.7773   58.5776   14.9727 H   0  0  0  0  0
   27.1968   59.2291   14.5110 H   0  0  0  0  0
   27.1134   61.8947   14.9260 H   0  0  0  0  0
  2  1  1  0  0  0
  1 32  1  0  0  0
  2  3  4  0  0  0
  4  2  4  0  0  0
  3  5  4  0  0  0
  4  6  4  0  0  0
 33  4  1  0  0  0
  7  5  4  0  0  0
  5 31  1  0  0  0
  6  7  4  0  0  0
  8  9  1  0  0  0
  8 10  2  0  0  0
  8 11  1  0  0  0
 22  8  1  0  0  0
 12 13  4  0  0  0
 12 21  4  0  0  0
 30 12  1  0  0  0
 13 14  4  0  0  0
 15 14  4  0  0  0
 15 16  4  0  0  0
 21 15  4  0  0  0
 16 17  1  0  0  0
 16 18  4  0  0  0
 19 18  4  0  0  0
 20 19  4  0  0  0
 21 20  4  0  0  0
 23 22  1  0  0  0
 24 23  1  0  0  0
 24 25  1  0  0  0
 26 24  1  0  0  0
 25 30  1  0  0  0
 27 26  1  0  0  0
 26 28  1  0  0  0
 27 33  1  0  0  0
 28 29  1  0  0  0
 28 30  1  0  0  0
 29 33  1  0  0  0
 33 32  1  0  0  0
  1 34  1  0  0  0
  1 35  1  0  0  0
  3 36  1  0  0  0
  6 37  1  0  0  0
  7 38  1  0  0  0
  9 39  1  0  0  0
 11 40  1  0  0  0
 13 41  1  0  0  0
 17 42  1  0  0  0
 17 43  1  0  0  0
 19 44  1  0  0  0
 23 45  1  0  0  0
 23 46  1  0  0  0
 24 47  1  0  0  0
 26 48  1  0  0  0
 28 49  1  0  0  0
 30 50  1  0  0  0
M  END
$$$$
