5agr_ligand
  -I-interpret- 

 63 68  0  0  0  0  0  0  0  0999 V2000
   15.5730    5.6810   11.1650 B   0  0  0  0  0
   22.3310    4.6460    9.9520 P   0  0  0  0  0
   20.8540    6.2300   17.9280 N   0  0  0  0  0
   14.4340    6.6320   11.2160 O   0  0  0  0  0
   20.1330    5.1680   17.5240 C   0  0  0  0  0
   19.5080    5.1440   16.3340 N   0  0  0  0  0
   19.6060    6.2330   15.5310 C   0  0  0  0  0
   20.3350    7.3460   15.9260 C   0  0  0  0  0
   20.9640    7.3360   17.1610 C   0  0  0  0  0
   21.6820    8.4060   17.5840 N   0  0  0  0  0
   20.2450    8.2650   14.9450 N   0  0  0  0  0
   19.4910    7.7310   13.9670 C   0  0  0  0  0
   19.1000    6.4930   14.3250 N   0  0  0  0  0
   18.2110    5.5520   13.5720 C   0  0  0  0  0
   13.1460    6.0170   11.0270 C   0  0  0  0  0
   13.5070    4.7040   10.4450 C   0  0  0  0  0
   14.8680    4.5130   10.5120 C   0  0  0  0  0
   12.6240    3.7650    9.8930 C   0  0  0  0  0
   13.1640    2.5740    9.4160 C   0  0  0  0  0
   14.5420    2.3660    9.4760 C   0  0  0  0  0
   15.4080    3.3200   10.0280 C   0  0  0  0  0
   23.0030    3.3470   10.2980 O   0  0  0  0  0
   17.1740    6.3280   12.7770 C   0  0  0  0  0
   16.0400    5.5000   12.5200 O   0  0  0  0  0
   21.8480    4.7120    8.5270 O   0  0  0  0  0
   17.7720    6.4840   11.3960 C   0  0  0  0  0
   16.6540    6.3480   10.5110 O   0  0  0  0  0
   12.4810    5.8380   12.3910 C   0  0  0  0  0
   13.3450    5.0950   13.3160 N   0  3  0  0  0
   16.7510    3.0920   10.0850 O   0  0  0  0  0
   17.3010    1.8700    9.5850 C   0  0  0  0  0
   18.7920    1.8520    9.8270 C   0  0  0  0  0
   23.0450    5.8990   10.3770 O   0  0  0  0  0
   18.7600    5.3220   11.3050 C   0  0  0  0  0
   18.9030    4.7640   12.6190 O   0  0  0  0  0
   20.1250    5.7810   10.8400 C   0  0  0  0  0
   20.9900    4.6470   10.8310 O   0  0  0  0  0
   20.0534    4.3018   18.1809 H   0  0  0  0  0
   22.1471    8.3816   18.4915 H   0  0  0  0  0
   21.7569    9.2351   16.9947 H   0  0  0  0  0
   19.2359    8.2245   13.0292 H   0  0  0  0  0
   17.7709    4.9100   14.3351 H   0  0  0  0  0
   12.4535    6.5849   10.4056 H   0  0  0  0  0
   11.5531    3.9607    9.8393 H   0  0  0  0  0
   12.5126    1.8069    8.9972 H   0  0  0  0  0
   14.9562    1.4373    9.0834 H   0  0  0  0  0
   16.9113    7.2443   13.3056 H   0  0  0  0  0
   21.4306    5.5623    8.3709 H   0  0  0  0  0
   18.2870    7.4169   11.1669 H   0  0  0  0  0
   11.5571    5.2761   12.2541 H   0  0  0  0  0
   12.2889    6.8240   12.8140 H   0  0  0  0  0
   12.8720    4.9938   14.2140 H   0  0  0  0  0
   13.5422    4.1724   12.9283 H   0  0  0  0  0
   14.2191    5.6043   13.4462 H   0  0  0  0  0
   17.1058    1.7948    8.5153 H   0  0  0  0  0
   16.8395    1.0269   10.0991 H   0  0  0  0  0
   19.2525    2.6955    9.3126 H   0  0  0  0  0
   18.9861    1.9273   10.8969 H   0  0  0  0  0
   19.2095    0.9202    9.4454 H   0  0  0  0  0
   22.5324    6.6649   10.1082 H   0  0  0  0  0
   18.3783    4.5965   10.5867 H   0  0  0  0  0
   20.5142    6.5470   11.5108 H   0  0  0  0  0
   20.0580    6.2123    9.8412 H   0  0  0  0  0
  1  4  1  0  0  0
  1 24  1  0  0  0
 27  1  1  0  0  0
  2 22  2  0  0  0
  2 25  1  0  0  0
  2 33  1  0  0  0
 37  2  1  0  0  0
  5  3  4  0  0  0
  9  3  4  0  0  0
  4 15  1  0  0  0
  6  5  4  0  0  0
  7  6  4  0  0  0
  7  8  4  0  0  0
 13  7  4  0  0  0
  8  9  4  0  0  0
 11  8  4  0  0  0
  9 10  1  0  0  0
 12 11  4  0  0  0
 13 12  4  0  0  0
 14 13  1  0  0  0
 14 23  1  0  0  0
 35 14  1  0  0  0
 15 16  1  0  0  0
 15 28  1  0  0  0
 16 17  4  0  0  0
 16 18  4  0  0  0
 17 21  4  0  0  0
 18 19  4  0  0  0
 19 20  4  0  0  0
 21 20  4  0  0  0
 21 30  1  0  0  0
 23 24  1  0  0  0
 26 23  1  0  0  0
 26 27  1  0  0  0
 34 26  1  0  0  0
 28 29  1  0  0  0
 30 31  1  0  0  0
 31 32  1  0  0  0
 34 35  1  0  0  0
 36 34  1  0  0  0
 36 37  1  0  0  0
  1 17  1  0  0  0
  5 38  1  0  0  0
 10 39  1  0  0  0
 10 40  1  0  0  0
 12 41  1  0  0  0
 14 42  1  0  0  0
 15 43  1  0  0  0
 18 44  1  0  0  0
 19 45  1  0  0  0
 20 46  1  0  0  0
 23 47  1  0  0  0
 25 48  1  0  0  0
 26 49  1  0  0  0
 28 50  1  0  0  0
 28 51  1  0  0  0
 29 52  1  0  0  0
 29 53  1  0  0  0
 29 54  1  0  0  0
 31 55  1  0  0  0
 31 56  1  0  0  0
 32 57  1  0  0  0
 32 58  1  0  0  0
 32 59  1  0  0  0
 33 60  1  0  0  0
 34 61  1  0  0  0
 36 62  1  0  0  0
 36 63  1  0  0  0
M  END
$$$$
