5agt_ligand
  -I-interpret- 

 63 68  0  0  0  0  0  0  0  0999 V2000
    6.4340   25.2410   11.2340 B   0  0  0  0  0
   -0.3250   26.3150   10.0520 P   0  0  0  0  0
   10.9300   27.0470    9.7140 Cl  0  0  0  0  0
    1.1650   24.5680   18.0220 N   0  0  0  0  0
    7.5160   24.2860   11.2310 O   0  0  0  0  0
    1.8450   25.6380   17.6060 C   0  0  0  0  0
    2.4760   25.6790   16.4260 N   0  0  0  0  0
    2.4040   24.5860   15.6420 C   0  0  0  0  0
    1.7050   23.4540   16.0320 C   0  0  0  0  0
    1.0660   23.4460   17.2730 C   0  0  0  0  0
    0.3690   22.3730   17.7090 N   0  0  0  0  0
    1.8370   22.5300   15.0500 N   0  0  0  0  0
    2.5850   23.1070   14.0890 C   0  0  0  0  0
    2.9290   24.3600   14.4430 N   0  0  0  0  0
    3.7830   25.3280   13.7050 C   0  0  0  0  0
    8.6440   25.1260   11.1400 C   0  0  0  0  0
    8.3560   26.3690   10.4290 C   0  0  0  0  0
    7.0030   26.5050   10.6280 C   0  0  0  0  0
    9.1910   27.3190    9.8990 C   0  0  0  0  0
    8.6220   28.4870    9.4280 C   0  0  0  0  0
    7.2540   28.6560    9.5530 C   0  0  0  0  0
    6.4290   27.6790   10.1460 C   0  0  0  0  0
    9.6250   25.1550   12.2580 C   0  0  0  0  0
    8.8450   25.8160   13.3190 N   0  3  0  0  0
    5.0830   27.8600   10.2520 O   0  0  0  0  0
   -0.9760   27.6160   10.4490 O   0  0  0  0  0
    4.8280   24.5820   12.8940 C   0  0  0  0  0
    5.9690   25.3860   12.6120 O   0  0  0  0  0
    4.4600   29.0910    9.8520 C   0  0  0  0  0
    2.9770   29.0030   10.0960 C   0  0  0  0  0
   -1.0040   25.0670   10.4980 O   0  0  0  0  0
    4.2120   24.3800   11.5360 C   0  0  0  0  0
    5.3040   24.5830   10.6480 O   0  0  0  0  0
    0.1740   26.2650    8.6290 O   0  0  0  0  0
    3.1690   25.4960   11.4350 C   0  0  0  0  0
    3.0600   26.0860   12.7400 O   0  0  0  0  0
    1.7650   25.0620   11.0350 C   0  0  0  0  0
    1.0170   26.2730   10.9510 O   0  0  0  0  0
    1.8885   26.5141   18.2530 H   0  0  0  0  0
   -0.0939   22.4004   18.6175 H   0  0  0  0  0
    0.3060   21.5360   17.1295 H   0  0  0  0  0
    2.8720   22.6259   13.1540 H   0  0  0  0  0
    4.2042   25.9804   14.4699 H   0  0  0  0  0
    9.3190   24.5781   10.4826 H   0  0  0  0  0
    9.2380   29.2594    8.9675 H   0  0  0  0  0
    6.7999   29.5744    9.1808 H   0  0  0  0  0
   10.5515   25.6735   12.0112 H   0  0  0  0  0
    9.9943   24.1687   12.5391 H   0  0  0  0  0
    9.4177   25.8987   14.1590 H   0  0  0  0  0
    8.5644   26.7449   13.0046 H   0  0  0  0  0
    8.0148   25.2604   13.5253 H   0  0  0  0  0
   -0.4565   28.3489   10.1105 H   0  0  0  0  0
    5.1159   23.6864   13.4445 H   0  0  0  0  0
    4.6449   29.2649    8.7920 H   0  0  0  0  0
    4.8761   29.9148   10.4319 H   0  0  0  0  0
    2.5628   28.1790    9.5150 H   0  0  0  0  0
    2.7942   28.8295   11.1565 H   0  0  0  0  0
    2.5041   29.9370    9.7925 H   0  0  0  0  0
    3.7384   23.4194   11.3335 H   0  0  0  0  0
    0.5983   27.0979    8.4104 H   0  0  0  0  0
    3.5191   26.1633   10.6474 H   0  0  0  0  0
    1.3340   24.3692   11.7577 H   0  0  0  0  0
    1.7630   24.5185   10.0902 H   0  0  0  0  0
  1  5  1  0  0  0
  1 28  1  0  0  0
 33  1  1  0  0  0
  2 26  1  0  0  0
  2 31  2  0  0  0
  2 34  1  0  0  0
 38  2  1  0  0  0
 19  3  1  0  0  0
  6  4  4  0  0  0
 10  4  4  0  0  0
  5 16  1  0  0  0
  7  6  4  0  0  0
  8  7  4  0  0  0
  8  9  4  0  0  0
 14  8  4  0  0  0
  9 10  4  0  0  0
 12  9  4  0  0  0
 10 11  1  0  0  0
 13 12  4  0  0  0
 14 13  4  0  0  0
 15 14  1  0  0  0
 15 27  1  0  0  0
 36 15  1  0  0  0
 16 17  1  0  0  0
 16 23  1  0  0  0
 17 18  4  0  0  0
 17 19  4  0  0  0
 18 22  4  0  0  0
 19 20  4  0  0  0
 20 21  4  0  0  0
 22 21  4  0  0  0
 22 25  1  0  0  0
 23 24  1  0  0  0
 25 29  1  0  0  0
 27 28  1  0  0  0
 32 27  1  0  0  0
 29 30  1  0  0  0
 32 33  1  0  0  0
 35 32  1  0  0  0
 35 36  1  0  0  0
 37 35  1  0  0  0
 37 38  1  0  0  0
  1 18  1  0  0  0
  6 39  1  0  0  0
 11 40  1  0  0  0
 11 41  1  0  0  0
 13 42  1  0  0  0
 15 43  1  0  0  0
 16 44  1  0  0  0
 20 45  1  0  0  0
 21 46  1  0  0  0
 23 47  1  0  0  0
 23 48  1  0  0  0
 24 49  1  0  0  0
 24 50  1  0  0  0
 24 51  1  0  0  0
 26 52  1  0  0  0
 27 53  1  0  0  0
 29 54  1  0  0  0
 29 55  1  0  0  0
 30 56  1  0  0  0
 30 57  1  0  0  0
 30 58  1  0  0  0
 32 59  1  0  0  0
 34 60  1  0  0  0
 35 61  1  0  0  0
 37 62  1  0  0  0
 37 63  1  0  0  0
M  END
$$$$
