5efa_ligand
  -I-interpret- 

 51 53  0  0  0  0  0  0  0  0999 V2000
   32.7850   28.3110   22.1440 P   0  0  0  0  0
   32.3460   29.3030   21.0910 O   0  0  0  0  0
   33.6760   28.9150   23.2030 O   0  0  0  0  0
   33.2670   26.9860   21.5990 O   0  0  0  0  0
   31.4010   27.9200   22.8800 O   0  0  0  0  0
   31.2070   27.9630   24.4780 P   0  0  0  0  0
   32.5000   27.6570   25.2120 O   0  0  0  0  0
   29.9360   27.2160   24.7930 O   0  0  0  0  0
   30.9410   29.5330   24.6380 O   0  0  0  0  0
   30.2100   30.1820   25.9060 P   0  0  0  0  0
   30.8300   29.6660   27.1830 O   0  0  0  0  0
   28.7230   30.0940   25.6360 O   0  0  0  0  0
   30.6700   31.7080   25.7170 O   0  0  0  0  0
   29.7870   32.6270   25.0800 C   0  0  0  0  0
   30.4590   33.2500   23.8570 C   0  0  0  0  0
   31.5640   34.0700   24.2490 O   0  0  0  0  0
   31.0560   32.1970   22.9440 C   0  0  0  0  0
   31.0120   32.7920   21.6460 O   0  0  0  0  0
   32.5050   32.0640   23.3690 C   0  0  0  0  0
   33.3300   31.7450   22.2500 O   0  0  0  0  0
   32.7870   33.4930   23.7770 C   0  0  0  0  0
   33.7970   33.7880   24.8140 N   0  3  0  0  0
   33.5090   33.3330   26.1880 C   0  0  0  0  0
   34.7150   33.9250   26.7720 N   0  0  0  0  0
   34.8640   33.7130   28.2480 C   0  0  0  0  0
   35.5060   34.5860   25.9180 C   0  0  0  0  0
   36.7730   35.3120   26.0540 C   0  0  0  0  0
   37.3670   35.4370   27.1400 O   0  0  0  0  0
   37.2550   35.8510   24.9290 N   0  0  0  0  0
   36.6500   35.7530   23.7280 C   0  0  0  0  0
   37.2440   36.3370   22.6550 N   0  0  0  0  0
   35.4850   35.0920   23.5420 N   0  0  0  0  0
   34.8860   34.5070   24.5940 C   0  0  0  0  0
   31.7850   28.8603   20.4500 H   0  0  0  0  0
   32.6495   26.6707   20.9350 H   0  0  0  0  0
   33.1975   28.2273   24.8805 H   0  0  0  0  0
   28.5321   30.4746   24.7756 H   0  0  0  0  0
   29.5284   33.4175   25.7845 H   0  0  0  0  0
   28.8908   32.0952   24.7605 H   0  0  0  0  0
   29.6790   33.8181   23.3501 H   0  0  0  0  0
   30.5538   31.2299   22.9686 H   0  0  0  0  0
   31.3771   32.1804   21.0023 H   0  0  0  0  0
   32.6861   31.2975   24.1225 H   0  0  0  0  0
   34.2421   31.6651   22.5387 H   0  0  0  0  0
   33.2151   33.9037   22.8626 H   0  0  0  0  0
   32.6880   32.7587   26.6172 H   0  0  0  0  0
   34.0125   34.1554   28.7651 H   0  0  0  0  0
   34.9030   32.6442   28.4581 H   0  0  0  0  0
   35.7844   34.1858   28.5906 H   0  0  0  0  0
   38.1269   36.8349   22.7691 H   0  0  0  0  0
   35.0654   35.0378   22.6139 H   0  0  0  0  0
  1  2  1  0  0  0
  1  3  2  0  0  0
  1  4  1  0  0  0
  1  5  1  0  0  0
  5  6  1  0  0  0
  6  7  1  0  0  0
  6  8  2  0  0  0
  6  9  1  0  0  0
  9 10  1  0  0  0
 10 11  2  0  0  0
 10 12  1  0  0  0
 10 13  1  0  0  0
 13 14  1  0  0  0
 14 15  1  0  0  0
 15 16  1  0  0  0
 15 17  1  0  0  0
 16 21  1  0  0  0
 17 18  1  0  0  0
 17 19  1  0  0  0
 19 20  1  0  0  0
 19 21  1  0  0  0
 21 22  1  0  0  0
 22 23  4  0  0  0
 22 33  4  0  0  0
 23 24  4  0  0  0
 24 25  1  0  0  0
 24 26  4  0  0  0
 26 27  1  0  0  0
 26 33  4  0  0  0
 27 28  2  0  0  0
 27 29  1  0  0  0
 29 30  4  0  0  0
 30 31  2  0  0  0
 30 32  1  0  0  0
 32 33  1  0  0  0
  2 34  1  0  0  0
  4 35  1  0  0  0
  7 36  1  0  0  0
 12 37  1  0  0  0
 14 38  1  0  0  0
 14 39  1  0  0  0
 15 40  1  0  0  0
 17 41  1  0  0  0
 18 42  1  0  0  0
 19 43  1  0  0  0
 20 44  1  0  0  0
 21 45  1  0  0  0
 23 46  1  0  0  0
 25 47  1  0  0  0
 25 48  1  0  0  0
 25 49  1  0  0  0
 31 50  1  0  0  0
 32 51  1  0  0  0
M  END
$$$$
