5efc_ligand
  -I-interpret- 

 47 49  0  0  0  0  0  0  0  0999 V2000
   28.1370   28.9640   24.3620 P   0  0  0  0  0
   28.1960   29.5540   22.9710 O   0  0  0  0  0
   26.8530   28.1940   24.5820 O   0  0  0  0  0
   28.1930   30.0840   25.3770 O   0  0  0  0  0
   29.3910   27.9810   24.6190 O   0  0  0  0  0
   30.0690   27.1160   23.4360 P   0  0  0  0  0
   29.0320   26.2120   22.8090 O   0  0  0  0  0
   31.2100   26.2940   23.9940 O   0  0  0  0  0
   30.6340   28.1480   22.3240 O   0  0  0  0  0
   31.7820   29.2670   22.5480 P   0  0  0  0  0
   31.5310   30.4050   21.5880 O   0  0  0  0  0
   33.1650   28.6950   22.3310 O   0  0  0  0  0
   31.6310   29.8310   24.0550 O   0  0  0  0  0
   32.3550   29.3350   25.1610 C   0  0  0  0  0
   32.4020   30.4100   26.2480 C   0  0  0  0  0
   33.4290   31.3330   25.9250 O   0  0  0  0  0
   31.1170   31.2160   26.3460 C   0  0  0  0  0
   30.8610   31.4660   27.7080 O   0  0  0  0  0
   31.4220   32.5460   25.6920 C   0  0  0  0  0
   30.8040   33.5930   26.4120 O   0  0  0  0  0
   32.9330   32.6550   25.8010 C   0  0  0  0  0
   33.5700   33.2840   24.6240 N   0  0  0  0  0
   33.2460   33.1340   23.2990 C   0  0  0  0  0
   34.1090   33.8660   22.5540 N   0  0  0  0  0
   34.9780   34.4860   23.3880 C   0  0  0  0  0
   36.0500   35.3370   23.1650 C   0  0  0  0  0
   36.3540   35.6750   22.0190 O   0  0  0  0  0
   36.7680   35.8010   24.2450 N   0  0  0  0  0
   36.4320   35.4190   25.5250 C   0  0  0  0  0
   37.1250   35.8610   26.5710 N   0  0  0  0  0
   35.3650   34.5760   25.7360 N   0  0  0  0  0
   34.6550   34.1130   24.6820 C   0  0  0  0  0
   26.8461   27.8330   25.4715 H   0  0  0  0  0
   28.1558   29.7143   26.2622 H   0  0  0  0  0
   31.8610   26.8787   24.3889 H   0  0  0  0  0
   33.3118   27.9733   22.9467 H   0  0  0  0  0
   33.3688   29.0799   24.8522 H   0  0  0  0  0
   31.8667   28.4411   25.5490 H   0  0  0  0  0
   32.5663   29.8927   27.1933 H   0  0  0  0  0
   30.2724   30.7023   25.8867 H   0  0  0  0  0
   30.0515   31.9752   27.7921 H   0  0  0  0  0
   31.0616   32.6131   24.6655 H   0  0  0  0  0
   31.0034   34.4316   25.9894 H   0  0  0  0  0
   33.1676   33.2894   26.6557 H   0  0  0  0  0
   32.4291   32.5262   22.9100 H   0  0  0  0  0
   37.9153   36.4902   26.4301 H   0  0  0  0  0
   35.1103   34.3011   26.6846 H   0  0  0  0  0
  1  2  2  0  0  0
  1  3  1  0  0  0
  1  4  1  0  0  0
  1  5  1  0  0  0
  5  6  1  0  0  0
  6  7  2  0  0  0
  6  8  1  0  0  0
  6  9  1  0  0  0
  9 10  1  0  0  0
 10 11  2  0  0  0
 10 12  1  0  0  0
 10 13  1  0  0  0
 13 14  1  0  0  0
 14 15  1  0  0  0
 15 16  1  0  0  0
 15 17  1  0  0  0
 16 21  1  0  0  0
 17 18  1  0  0  0
 17 19  1  0  0  0
 19 20  1  0  0  0
 19 21  1  0  0  0
 21 22  1  0  0  0
 22 23  4  0  0  0
 22 32  4  0  0  0
 23 24  4  0  0  0
 24 25  4  0  0  0
 25 26  1  0  0  0
 25 32  4  0  0  0
 26 27  2  0  0  0
 26 28  1  0  0  0
 28 29  4  0  0  0
 29 30  2  0  0  0
 29 31  1  0  0  0
 31 32  1  0  0  0
  3 33  1  0  0  0
  4 34  1  0  0  0
  8 35  1  0  0  0
 12 36  1  0  0  0
 14 37  1  0  0  0
 14 38  1  0  0  0
 15 39  1  0  0  0
 17 40  1  0  0  0
 18 41  1  0  0  0
 19 42  1  0  0  0
 20 43  1  0  0  0
 21 44  1  0  0  0
 23 45  1  0  0  0
 30 46  1  0  0  0
 31 47  1  0  0  0
M  END
$$$$
