5ey0_ligand
  -I-interpret- 

 47 49  0  0  0  0  0  0  0  0999 V2000
   -7.3950   -0.2620  -21.1160 P   0  0  0  0  0
   -7.5820    1.1870  -21.4910 O   0  0  0  0  0
   -8.7320   -0.9440  -20.9480 O   0  0  0  0  0
   -6.5930   -0.3730  -19.8360 O   0  0  0  0  0
   -6.5660   -0.9810  -22.2850 O   0  0  0  0  0
   -7.2280   -2.0010  -23.3350 P   0  0  0  0  0
   -8.1960   -1.3170  -24.2640 O   0  0  0  0  0
   -7.8510   -3.2110  -22.6670 O   0  0  0  0  0
   -5.8720   -2.4790  -24.0930 O   0  0  0  0  0
   -4.8690   -1.4800  -24.8710 P   0  0  0  0  0
   -4.6060   -2.0270  -26.2540 O   0  0  0  0  0
   -5.4050   -0.0710  -24.8850 O   0  0  0  0  0
   -3.4770   -1.5070  -24.0380 O   0  0  0  0  0
   -3.2710   -0.6660  -22.9190 C   0  0  0  0  0
   -2.0940    0.2690  -23.2020 C   0  0  0  0  0
   -0.8900   -0.4740  -23.3420 O   0  0  0  0  0
   -2.2410    1.0270  -24.5100 C   0  0  0  0  0
   -1.7180    2.3140  -24.2850 O   0  0  0  0  0
   -1.3300    0.2970  -25.4780 C   0  0  0  0  0
   -0.8340    1.1470  -26.4790 O   0  0  0  0  0
   -0.2160   -0.1280  -24.5480 C   0  0  0  0  0
    0.5230   -1.3470  -24.9170 N   0  0  0  0  0
    0.0350   -2.5970  -25.2100 C   0  0  0  0  0
    1.0690   -3.4460  -25.4180 N   0  0  0  0  0
    2.2230   -2.7630  -25.2450 C   0  0  0  0  0
    3.5740   -3.1210  -25.3180 C   0  0  0  0  0
    3.9440   -4.2700  -25.5890 O   0  0  0  0  0
    4.5370   -2.1540  -25.0840 N   0  0  0  0  0
    4.1640   -0.8660  -24.7670 C   0  0  0  0  0
    5.0980    0.0580  -24.5330 N   0  0  0  0  0
    2.8350   -0.5210  -24.6890 N   0  0  0  0  0
    1.8850   -1.4530  -24.9190 C   0  0  0  0  0
   -8.5932   -1.8636  -20.7099 H   0  0  0  0  0
   -6.4814   -1.2991  -19.6089 H   0  0  0  0  0
   -7.2072   -3.6202  -22.0842 H   0  0  0  0  0
   -4.2677   -2.9227  -26.1836 H   0  0  0  0  0
   -3.0526   -1.2732  -22.0405 H   0  0  0  0  0
   -4.1694   -0.0772  -22.7338 H   0  0  0  0  0
   -2.0729    0.9598  -22.3591 H   0  0  0  0  0
   -3.2655    1.0902  -24.8768 H   0  0  0  0  0
   -1.7900    2.8326  -25.0896 H   0  0  0  0  0
   -1.8209   -0.5114  -26.0199 H   0  0  0  0  0
   -0.2641    0.6473  -27.0682 H   0  0  0  0  0
    0.5115    0.6834  -24.5286 H   0  0  0  0  0
   -1.0203   -2.8639  -25.2663 H   0  0  0  0  0
    6.0859   -0.1898  -24.5890 H   0  0  0  0  0
    2.5676    0.4359  -24.4581 H   0  0  0  0  0
  1  2  2  0  0  0
  1  3  1  0  0  0
  1  4  1  0  0  0
  1  5  1  0  0  0
  5  6  1  0  0  0
  6  7  2  0  0  0
  6  8  1  0  0  0
  6  9  1  0  0  0
  9 10  1  0  0  0
 10 11  1  0  0  0
 10 12  2  0  0  0
 10 13  1  0  0  0
 13 14  1  0  0  0
 14 15  1  0  0  0
 15 16  1  0  0  0
 15 17  1  0  0  0
 16 21  1  0  0  0
 17 18  1  0  0  0
 17 19  1  0  0  0
 19 20  1  0  0  0
 19 21  1  0  0  0
 21 22  1  0  0  0
 22 23  4  0  0  0
 22 32  4  0  0  0
 23 24  4  0  0  0
 24 25  4  0  0  0
 25 26  1  0  0  0
 25 32  4  0  0  0
 26 27  2  0  0  0
 26 28  1  0  0  0
 28 29  4  0  0  0
 29 30  2  0  0  0
 29 31  1  0  0  0
 31 32  1  0  0  0
  3 33  1  0  0  0
  4 34  1  0  0  0
  8 35  1  0  0  0
 11 36  1  0  0  0
 14 37  1  0  0  0
 14 38  1  0  0  0
 15 39  1  0  0  0
 17 40  1  0  0  0
 18 41  1  0  0  0
 19 42  1  0  0  0
 20 43  1  0  0  0
 21 44  1  0  0  0
 23 45  1  0  0  0
 30 46  1  0  0  0
 31 47  1  0  0  0
M  END
$$$$
