5fom_ligand
  -I-interpret- 

 63 68  0  0  0  0  0  0  0  0999 V2000
    4.3690  -15.9690  -21.8790 B   0  0  0  0  0
    4.3520  -10.1230  -25.8640 P   0  0  0  0  0
    4.7450  -17.9520  -17.1360 Cl  0  0  0  0  0
   -1.8180  -13.5960  -27.4450 N   0  0  0  0  0
    4.7470  -17.3880  -21.7290 O   0  0  0  0  0
   -1.7620  -13.3620  -26.1170 C   0  0  0  0  0
   -0.6530  -13.6730  -25.4090 N   0  0  0  0  0
    0.4240  -14.2500  -26.0250 C   0  0  0  0  0
    0.3830  -14.5120  -27.3930 C   0  0  0  0  0
   -0.7630  -14.1660  -28.0980 C   0  0  0  0  0
   -0.7870  -14.4170  -29.4240 N   0  0  0  0  0
    1.5570  -15.0730  -27.7600 N   0  0  0  0  0
    2.3070  -15.1640  -26.6440 C   0  0  0  0  0
    1.6150  -14.6710  -25.5930 N   0  0  0  0  0
    2.0340  -14.5850  -24.1800 C   0  0  0  0  0
    4.6460  -17.8740  -20.3870 C   0  0  0  0  0
    4.5270  -16.6130  -19.6090 C   0  0  0  0  0
    4.4210  -15.4990  -20.4390 C   0  0  0  0  0
    4.5750  -16.5080  -18.2200 C   0  0  0  0  0
    4.4760  -15.2360  -17.6510 C   0  0  0  0  0
    4.3500  -14.1000  -18.4440 C   0  0  0  0  0
    4.3170  -14.2090  -19.8540 C   0  0  0  0  0
    3.4750  -18.8320  -20.2510 C   0  0  0  0  0
    2.2690  -18.2420  -20.7460 N   0  3  0  0  0
    4.1740  -13.0800  -20.6210 O   0  0  0  0  0
    3.6220  -10.7290  -27.0210 O   0  0  0  0  0
    3.0590  -15.6530  -23.8200 C   0  0  0  0  0
    3.0700  -16.0010  -22.4410 O   0  0  0  0  0
    4.4000  -11.7160  -20.2170 C   0  0  0  0  0
    3.7540  -10.7750  -21.2270 C   0  0  0  0  0
    3.5830   -8.9910  -25.2260 O   0  0  0  0  0
    4.3940  -14.9840  -24.0220 C   0  0  0  0  0
    5.1820  -15.4410  -22.9230 O   0  0  0  0  0
    5.8380   -9.9010  -26.0210 O   0  0  0  0  0
    4.0750  -13.4940  -23.9270 C   0  0  0  0  0
    2.6630  -13.3360  -23.9750 O   0  0  0  0  0
    4.6250  -12.6530  -25.0520 C   0  0  0  0  0
    4.2840  -11.2950  -24.7600 O   0  0  0  0  0
   -2.6190  -12.9181  -25.6105 H   0  0  0  0  0
   -1.6131  -14.1795  -29.9732 H   0  0  0  0  0
    0.0209  -14.8442  -29.8769 H   0  0  0  0  0
    3.3165  -15.5724  -26.5964 H   0  0  0  0  0
    1.1437  -14.7178  -23.5654 H   0  0  0  0  0
    5.4861  -18.4740  -20.0371 H   0  0  0  0  0
    4.4979  -15.1317  -16.5662 H   0  0  0  0  0
    4.2762  -13.1186  -17.9754 H   0  0  0  0  0
    3.3398  -19.0711  -19.1962 H   0  0  0  0  0
    3.6886  -19.7297  -20.8312 H   0  0  0  0  0
    1.5005  -18.9047  -20.6430 H   0  0  0  0  0
    2.0631  -17.3957  -20.2151 H   0  0  0  0  0
    2.3867  -18.0065  -21.7314 H   0  0  0  0  0
    2.8409  -16.5421  -24.4117 H   0  0  0  0  0
    5.4718  -11.5223  -20.1729 H   0  0  0  0  0
    3.9613  -11.5505  -19.2330 H   0  0  0  0  0
    4.1941  -10.9417  -22.2102 H   0  0  0  0  0
    2.6824  -10.9698  -21.2695 H   0  0  0  0  0
    3.9251   -9.7429  -20.9212 H   0  0  0  0  0
    4.0892   -8.6356  -24.4918 H   0  0  0  0  0
    4.9184  -15.1886  -24.9554 H   0  0  0  0  0
    6.1887   -9.5101  -25.2174 H   0  0  0  0  0
    4.5373  -13.1555  -22.9997 H   0  0  0  0  0
    4.2017  -12.9612  -26.0080 H   0  0  0  0  0
    5.7056  -12.7720  -25.1314 H   0  0  0  0  0
  1  5  1  0  0  0
  1 28  1  0  0  0
 33  1  1  0  0  0
  2 26  2  0  0  0
  2 31  1  0  0  0
  2 34  1  0  0  0
 38  2  1  0  0  0
 19  3  1  0  0  0
  6  4  4  0  0  0
 10  4  4  0  0  0
  5 16  1  0  0  0
  7  6  4  0  0  0
  8  7  4  0  0  0
  8  9  4  0  0  0
 14  8  4  0  0  0
  9 10  4  0  0  0
 12  9  4  0  0  0
 10 11  1  0  0  0
 13 12  4  0  0  0
 14 13  4  0  0  0
 15 14  1  0  0  0
 15 27  1  0  0  0
 36 15  1  0  0  0
 16 17  1  0  0  0
 16 23  1  0  0  0
 17 18  4  0  0  0
 17 19  4  0  0  0
 18 22  4  0  0  0
 19 20  4  0  0  0
 20 21  4  0  0  0
 22 21  4  0  0  0
 22 25  1  0  0  0
 23 24  1  0  0  0
 25 29  1  0  0  0
 27 28  1  0  0  0
 32 27  1  0  0  0
 29 30  1  0  0  0
 32 33  1  0  0  0
 35 32  1  0  0  0
 35 36  1  0  0  0
 37 35  1  0  0  0
 37 38  1  0  0  0
  1 18  1  0  0  0
  6 39  1  0  0  0
 11 40  1  0  0  0
 11 41  1  0  0  0
 13 42  1  0  0  0
 15 43  1  0  0  0
 16 44  1  0  0  0
 20 45  1  0  0  0
 21 46  1  0  0  0
 23 47  1  0  0  0
 23 48  1  0  0  0
 24 49  1  0  0  0
 24 50  1  0  0  0
 24 51  1  0  0  0
 27 52  1  0  0  0
 29 53  1  0  0  0
 29 54  1  0  0  0
 30 55  1  0  0  0
 30 56  1  0  0  0
 30 57  1  0  0  0
 31 58  1  0  0  0
 32 59  1  0  0  0
 34 60  1  0  0  0
 35 61  1  0  0  0
 37 62  1  0  0  0
 37 63  1  0  0  0
M  END
$$$$
