5HLM_LIGAND
  -I-interpret- 

 43 53  0  0  0  0  0  0  0  0999 V2000
   12.3790   42.4990   32.4700 O   0  0  0  0  0
   11.6360   41.3110   32.5350 C   0  0  0  0  0
   12.2210   40.2990   31.5980 C   0  0  0  0  0
   11.5080   39.4630   30.6760 C   0  0  0  0  0
   12.4530   38.7180   29.9280 C   0  0  0  0  0
   13.7360   39.0700   30.3770 C   0  0  0  0  0
   13.6060   40.0390   31.3940 C   0  0  0  0  0
   10.2010   41.7410   32.2160 C   0  0  0  0  0
    9.2820   40.9980   33.1920 C   0  0  0  0  0
    7.8580   40.8900   32.7220 C   0  0  0  0  0
    7.1970   39.6460   33.2900 C   0  0  0  0  0
    6.2140   39.0010   32.3350 C   0  0  0  0  0
    5.6750   37.6390   32.7330 C   0  0  0  0  0
    5.2350   37.5740   34.0950 N   0  0  0  0  0
    3.9390   37.2230   34.2350 C   0  0  0  0  0
    3.3490   37.0750   35.2980 O   0  0  0  0  0
    4.7170   40.0090   32.1220 S   0  0  0  0  0
    3.9710   38.6470   31.1970 C   0  0  0  0  0
    4.3510   37.3810   31.9510 C   0  0  0  0  0
    3.4150   37.0470   33.0050 N   0  0  0  0  0
   11.5750   42.2760   28.9010 C   0  0  0  0  0
   12.8230   42.7950   29.3340 C   0  0  0  0  0
   13.8730   42.1410   28.6400 C   0  0  0  0  0
   13.2630   41.2180   27.7500 C   0  0  0  0  0
   11.8500   41.2930   27.9190 C   0  0  0  0  0
   12.7280   40.7630   29.6710 Fe  0  0  0  0  0
   13.3006   42.3096   32.6607 H   0  0  0  0  0
   11.6544   40.8130   33.5044 H   0  0  0  0  0
    9.9458   41.4968   31.1848 H   0  0  0  0  0
   10.0885   42.8196   32.3261 H   0  0  0  0  0
    9.2745   41.5620   34.1247 H   0  0  0  0  0
    9.6683   39.9839   33.2941 H   0  0  0  0  0
    7.8503   40.8271   31.6338 H   0  0  0  0  0
    7.3077   41.7674   33.0618 H   0  0  0  0  0
    6.6438   39.9442   34.1806 H   0  0  0  0  0
    7.9832   38.9192   33.4942 H   0  0  0  0  0
    6.8266   38.9048   31.4385 H   0  0  0  0  0
    6.4900   36.9406   32.5429 H   0  0  0  0  0
    5.8456   37.7747   34.8870 H   0  0  0  0  0
    4.3310   38.6205   30.1685 H   0  0  0  0  0
    2.8890   38.7590   31.1276 H   0  0  0  0  0
    4.3989   36.5941   31.1982 H   0  0  0  0  0
    2.4653   36.7156   32.8356 H   0  0  0  0  0
  2  1  1  0  0  0
  3  2  1  0  0  0
  2  8  1  0  0  0
  4  3  4  0  0  0
  7  3  4  0  0  0
  5  4  4  0  0  0
  6  5  4  0  0  0
  7  6  4  0  0  0
  8  9  1  0  0  0
  9 10  1  0  0  0
 10 11  1  0  0  0
 11 12  1  0  0  0
 12 13  1  0  0  0
 12 17  1  0  0  0
 13 14  1  0  0  0
 13 19  1  0  0  0
 14 15  1  0  0  0
 15 16  2  0  0  0
 20 15  1  0  0  0
 17 18  1  0  0  0
 18 19  1  0  0  0
 19 20  1  0  0  0
 21 22  4  0  0  0
 21 25  4  0  0  0
 22 23  4  0  0  0
 24 23  4  0  0  0
 25 24  4  0  0  0
 26  4  1  0  0  0
 26  5  1  0  0  0
 26  6  1  0  0  0
 26  7  1  0  0  0
 26 21  1  0  0  0
 26 22  1  0  0  0
 26 23  1  0  0  0
 26 24  1  0  0  0
 26 25  1  0  0  0
  1 27  1  0  0  0
  2 28  1  0  0  0
  8 29  1  0  0  0
  8 30  1  0  0  0
  9 31  1  0  0  0
  9 32  1  0  0  0
 10 33  1  0  0  0
 10 34  1  0  0  0
 11 35  1  0  0  0
 11 36  1  0  0  0
 12 37  1  0  0  0
 13 38  1  0  0  0
 14 39  1  0  0  0
 18 40  1  0  0  0
 18 41  1  0  0  0
 19 42  1  0  0  0
 20 43  1  0  0  0
M  END
$$$$
