5izk_ligand
  -I-interpret- 

 42 44  0  0  0  0  0  0  0  0999 V2000
   10.9940    9.4880  112.1690 P   0  0  0  0  0
   12.3720    9.6370  111.6810 O   0  0  0  0  0
   10.4070    8.1460  112.0560 O   0  0  0  0  0
   10.7190   10.1730  113.4510 O   0  0  0  0  0
   10.1360   10.3650  111.1610 O   0  0  0  0  0
   10.6910   11.7910  110.6600 P   0  0  0  0  0
   12.0180   11.5770  110.0440 O   0  0  0  0  0
   10.5490   12.7550  111.7720 O   0  0  0  0  0
    9.6370   12.1670  109.5080 O   0  0  0  0  0
   10.0570   12.2150  108.1420 C   0  0  0  0  0
    8.9910   12.9250  107.3050 C   0  0  0  0  0
    8.9850   14.3230  107.6240 O   0  0  0  0  0
    9.3870   12.8840  105.8380 C   0  0  0  0  0
    8.6600   11.8400  105.1740 O   0  0  0  0  0
    8.9440   14.2340  105.2970 C   0  0  0  0  0
    7.9380   14.0410  104.2920 O   0  0  0  0  0
    8.3330   14.9320  106.5000 C   0  0  0  0  0
    8.6320   16.3810  106.4820 N   0  0  0  0  0
    9.5850   16.9880  107.1830 C   0  0  0  0  0
    9.5370   18.2850  106.8960 N   0  0  0  0  0
    8.5560   18.4810  106.0200 C   0  0  0  0  0
    8.1150   19.5910  105.4320 C   0  0  0  0  0
    8.6360   20.6790  105.6720 O   0  0  0  0  0
    7.0480   19.5200  104.5330 N   0  0  0  0  0
    6.4790   18.2720  104.2820 C   0  0  0  0  0
    5.4610   18.1560  103.4330 N   0  0  0  0  0
    6.9660   17.1910  104.9040 N   0  0  0  0  0
    7.9930   17.2990  105.7620 C   0  0  0  0  0
   12.6562   10.5461  111.8008 H   0  0  0  0  0
   11.1343   11.0385  113.4456 H   0  0  0  0  0
   11.9426   10.9263  109.3422 H   0  0  0  0  0
   10.1956   11.2003  107.7687 H   0  0  0  0  0
   10.9980   12.7605  108.0703 H   0  0  0  0  0
    8.0350   12.4396  107.5012 H   0  0  0  0  0
   10.4505   12.6957  105.6908 H   0  0  0  0  0
    8.9114   11.8157  104.2478 H   0  0  0  0  0
    9.7599   14.7998  104.8473 H   0  0  0  0  0
    7.6595   14.8943  103.9516 H   0  0  0  0  0
    7.2476   14.8341  106.5213 H   0  0  0  0  0
   10.2814   16.5077  107.8704 H   0  0  0  0  0
    5.0930   18.9825  102.9620 H   0  0  0  0  0
    6.5525   16.2761  104.7242 H   0  0  0  0  0
  1  2  1  0  0  0
  1  3  2  0  0  0
  1  4  1  0  0  0
  1  5  1  0  0  0
  5  6  1  0  0  0
  6  7  1  0  0  0
  6  8  2  0  0  0
  6  9  1  0  0  0
  9 10  1  0  0  0
 10 11  1  0  0  0
 11 12  1  0  0  0
 11 13  1  0  0  0
 12 17  1  0  0  0
 13 14  1  0  0  0
 13 15  1  0  0  0
 15 16  1  0  0  0
 15 17  1  0  0  0
 17 18  1  0  0  0
 18 19  4  0  0  0
 18 28  4  0  0  0
 19 20  4  0  0  0
 20 21  4  0  0  0
 21 22  1  0  0  0
 21 28  4  0  0  0
 22 23  2  0  0  0
 22 24  1  0  0  0
 24 25  4  0  0  0
 25 26  2  0  0  0
 25 27  1  0  0  0
 27 28  1  0  0  0
  2 29  1  0  0  0
  4 30  1  0  0  0
  7 31  1  0  0  0
 10 32  1  0  0  0
 10 33  1  0  0  0
 11 34  1  0  0  0
 13 35  1  0  0  0
 14 36  1  0  0  0
 15 37  1  0  0  0
 16 38  1  0  0  0
 17 39  1  0  0  0
 19 40  1  0  0  0
 26 41  1  0  0  0
 27 42  1  0  0  0
M  END
$$$$
