5izm_ligand
  -I-interpret- 

 48 50  0  0  0  0  0  0  0  0999 V2000
   -1.6370    0.4180   20.8220 P   0  0  0  0  0
   -1.8170   -0.5300   19.5220 O   0  0  0  0  0
   -1.2470   -0.5900   22.0280 O   0  0  0  0  0
   -0.5990    1.4570   20.6110 O   0  0  0  0  0
   -3.1030    1.0190   21.1700 N   0  0  0  0  0
   -3.8840    1.4010   19.7760 P   0  0  0  0  0
   -2.7490    2.0490   18.8210 O   0  0  0  0  0
   -5.0130    2.3350   20.0100 O   0  0  0  0  0
   -4.3230    0.0100   19.0940 O   0  0  0  0  0
   -5.3150    0.0130   17.8300 P   0  0  0  0  0
   -4.7460   -0.8520   16.7740 O   0  0  0  0  0
   -5.6800    1.4100   17.5110 O   0  0  0  0  0
   -6.6160   -0.7210   18.4310 O   0  0  0  0  0
   -6.6960   -2.1490   18.4290 C   0  0  0  0  0
   -8.0110   -2.5850   17.7800 C   0  0  0  0  0
   -9.0190   -1.5940   18.0260 O   0  0  0  0  0
   -7.8560   -2.5850   16.2680 C   0  0  0  0  0
   -7.6300   -3.9260   15.8100 O   0  0  0  0  0
   -9.2020   -2.0940   15.7580 C   0  0  0  0  0
   -9.8250   -3.1260   14.9800 O   0  0  0  0  0
  -10.0110   -1.8530   17.0230 C   0  0  0  0  0
  -10.8860   -0.6680   16.8750 N   0  0  0  0  0
  -10.4780    0.5770   16.6510 C   0  0  0  0  0
  -11.5560    1.3510   16.5800 N   0  0  0  0  0
  -12.6300    0.5860   16.7610 C   0  0  0  0  0
  -13.9270    0.8860   16.7790 C   0  0  0  0  0
  -14.3070    2.0430   16.6100 O   0  0  0  0  0
  -14.8670   -0.1250   16.9930 N   0  0  0  0  0
  -14.4040   -1.4270   17.1810 C   0  0  0  0  0
  -15.2630   -2.4220   17.3880 N   0  0  0  0  0
  -13.0870   -1.6660   17.1520 N   0  0  0  0  0
  -12.2140   -0.6680   16.9440 C   0  0  0  0  0
   -2.4948   -1.1867   19.6976 H   0  0  0  0  0
   -1.9408   -1.2452   22.1329 H   0  0  0  0  0
   -3.4815    1.1409   22.1093 H   0  0  0  0  0
   -2.0388    1.4155   18.6947 H   0  0  0  0  0
   -4.5640   -1.7216   17.1378 H   0  0  0  0  0
   -6.6574   -2.5166   19.4544 H   0  0  0  0  0
   -5.8586   -2.5591   17.8644 H   0  0  0  0  0
   -8.2711   -3.5647   18.1808 H   0  0  0  0  0
   -7.0229   -1.9707   15.9263 H   0  0  0  0  0
   -7.5323   -3.9246   14.8550 H   0  0  0  0  0
   -9.1205   -1.2065   15.1304 H   0  0  0  0  0
  -10.6744   -2.8145   14.6589 H   0  0  0  0  0
  -10.6594   -2.6961   17.2613 H   0  0  0  0  0
   -9.4439    0.9047   16.5445 H   0  0  0  0  0
  -16.2653   -2.2342   17.4097 H   0  0  0  0  0
  -12.7435   -2.6165   17.2894 H   0  0  0  0  0
  1  2  1  0  0  0
  1  3  1  0  0  0
  1  4  2  0  0  0
  1  5  1  0  0  0
  5  6  1  0  0  0
  6  7  1  0  0  0
  6  8  2  0  0  0
  6  9  1  0  0  0
  9 10  1  0  0  0
 10 11  1  0  0  0
 10 12  2  0  0  0
 10 13  1  0  0  0
 13 14  1  0  0  0
 14 15  1  0  0  0
 15 16  1  0  0  0
 15 17  1  0  0  0
 16 21  1  0  0  0
 17 18  1  0  0  0
 17 19  1  0  0  0
 19 20  1  0  0  0
 19 21  1  0  0  0
 21 22  1  0  0  0
 22 23  4  0  0  0
 22 32  4  0  0  0
 23 24  4  0  0  0
 24 25  4  0  0  0
 25 26  1  0  0  0
 25 32  4  0  0  0
 26 27  2  0  0  0
 26 28  1  0  0  0
 28 29  4  0  0  0
 29 30  2  0  0  0
 29 31  1  0  0  0
 31 32  1  0  0  0
  2 33  1  0  0  0
  3 34  1  0  0  0
  5 35  1  0  0  0
  7 36  1  0  0  0
 11 37  1  0  0  0
 14 38  1  0  0  0
 14 39  1  0  0  0
 15 40  1  0  0  0
 17 41  1  0  0  0
 18 42  1  0  0  0
 19 43  1  0  0  0
 20 44  1  0  0  0
 21 45  1  0  0  0
 23 46  1  0  0  0
 30 47  1  0  0  0
 31 48  1  0  0  0
M  END
$$$$
