5jsq_ligand
  -I-interpret- 

 38 39  0  0  0  0  0  0  0  0999 V2000
   40.8260   22.8280   40.9160 C   0  0  0  0  0
   40.6500   30.2020   39.7450 P   0  0  0  0  0
   42.8070   21.5080   46.3950 O   0  0  0  0  0
   41.9690   21.5480   45.5230 C   0  0  0  0  0
   40.7350   20.9770   45.7890 N   0  0  0  0  0
   39.6980   20.9710   44.8340 C   0  0  0  0  0
   38.5160   20.3730   45.2200 N   0  0  0  0  0
   39.8750   21.5230   43.5300 N   0  0  0  0  0
   41.1550   22.0850   43.2320 C   0  0  0  0  0
   42.1930   22.1290   44.1590 C   0  0  0  0  0
   43.2530   22.7610   43.5660 N   0  0  0  0  0
   42.8780   23.0780   42.3240 C   0  0  0  0  0
   41.6320   22.6790   42.1150 N   0  0  0  0  0
   39.8260   24.0070   41.1370 C   0  0  0  0  0
   39.9620   25.0760   40.0290 C   0  0  0  0  0
   39.1940   26.3690   40.3470 C   0  0  0  0  0
   40.0890   27.5710   40.0100 C   0  0  0  0  0
   39.4440   28.9170   40.2030 C   0  0  0  0  0
   41.7970   30.1740   40.7290 O   0  0  0  0  0
   41.1560   29.9170   38.3520 O   0  0  0  0  0
   40.0050   31.5700   39.7400 O   0  0  0  0  0
   40.2782   21.9067   40.7182 H   0  0  0  0  0
   41.4669   23.0383   40.0597 H   0  0  0  0  0
   38.4303   19.9672   46.1519 H   0  0  0  0  0
   39.1222   21.5168   42.8418 H   0  0  0  0  0
   43.5035   23.5886   41.5918 H   0  0  0  0  0
   40.0469   24.4732   42.0972 H   0  0  0  0  0
   38.8113   23.6098   41.1125 H   0  0  0  0  0
   39.5463   24.6591   39.1117 H   0  0  0  0  0
   41.0182   25.3299   39.9395 H   0  0  0  0  0
   38.9284   26.3907   41.4039 H   0  0  0  0  0
   38.2799   26.4112   39.7547 H   0  0  0  0  0
   40.3395   27.4905   38.9522 H   0  0  0  0  0
   40.9408   27.5296   40.6888 H   0  0  0  0  0
   38.5557   28.9985   39.5766 H   0  0  0  0  0
   39.1432   29.0411   41.2433 H   0  0  0  0  0
   41.4649   30.3563   41.6111 H   0  0  0  0  0
   39.6759   31.7706   40.6192 H   0  0  0  0  0
  1 13  1  0  0  0
 14  1  1  0  0  0
 18  2  1  0  0  0
  2 19  1  0  0  0
  2 20  2  0  0  0
  2 21  1  0  0  0
  4  3  2  0  0  0
  4  5  1  0  0  0
 10  4  1  0  0  0
  6  5  4  0  0  0
  6  7  2  0  0  0
  8  6  1  0  0  0
  9  8  1  0  0  0
  9 10  4  0  0  0
 13  9  4  0  0  0
 11 10  4  0  0  0
 12 11  4  0  0  0
 13 12  4  0  0  0
 15 14  1  0  0  0
 16 15  1  0  0  0
 17 16  1  0  0  0
 17 18  1  0  0  0
  1 22  1  0  0  0
  1 23  1  0  0  0
  7 24  1  0  0  0
  8 25  1  0  0  0
 12 26  1  0  0  0
 14 27  1  0  0  0
 14 28  1  0  0  0
 15 29  1  0  0  0
 15 30  1  0  0  0
 16 31  1  0  0  0
 16 32  1  0  0  0
 17 33  1  0  0  0
 17 34  1  0  0  0
 18 35  1  0  0  0
 18 36  1  0  0  0
 19 37  1  0  0  0
 21 38  1  0  0  0
M  END
$$$$
