5km1_ligand
  -I-interpret- 

 37 39  0  0  0  0  0  0  0  0999 V2000
  -31.8980    4.0930  -23.9540 P   0  0  0  0  0
  -32.6650    2.8220  -24.2550 O   0  0  0  0  0
  -32.6550    5.3740  -24.2010 O   0  0  0  0  0
  -31.1440    4.0380  -22.6450 O   0  0  0  0  0
  -30.6700    4.1300  -24.9570 O   0  0  0  0  0
  -30.8770    4.1600  -26.3630 C   0  0  0  0  0
  -29.8330    5.0210  -27.0090 C   0  0  0  0  0
  -29.6750    4.5840  -28.3740 O   0  0  0  0  0
  -30.1870    6.5130  -27.0510 C   0  0  0  0  0
  -29.1380    7.2820  -26.4480 O   0  0  0  0  0
  -30.2890    6.8290  -28.5550 C   0  0  0  0  0
  -29.8190    8.1090  -28.9390 O   0  0  0  0  0
  -29.4760    5.7060  -29.1910 C   0  0  0  0  0
  -29.9060    5.3750  -30.5460 N   0  0  0  0  0
  -31.1760    5.2160  -30.9620 C   0  0  0  0  0
  -31.1690    4.9450  -32.2830 N   0  0  0  0  0
  -29.8760    4.9340  -32.6870 C   0  0  0  0  0
  -29.2650    4.7060  -33.9120 C   0  0  0  0  0
  -29.9530    4.4610  -34.9430 O   0  0  0  0  0
  -27.9240    4.7680  -33.9730 N   0  0  0  0  0
  -27.1700    5.0250  -32.8920 C   0  0  0  0  0
  -25.8190    5.0740  -33.0050 N   0  0  0  0  0
  -27.7400    5.2530  -31.6880 N   0  0  0  0  0
  -29.0900    5.2050  -31.5820 C   0  0  0  0  0
  -32.1083    2.0622  -24.0698 H   0  0  0  0  0
  -30.6943    3.1931  -22.5713 H   0  0  0  0  0
  -31.8647    4.5697  -26.5742 H   0  0  0  0  0
  -30.8069    3.1474  -26.7603 H   0  0  0  0  0
  -28.9294    4.9156  -26.4085 H   0  0  0  0  0
  -31.1036    6.7493  -26.5105 H   0  0  0  0  0
  -29.3676    8.2136  -26.4786 H   0  0  0  0  0
  -31.3294    6.8713  -28.8773 H   0  0  0  0  0
  -29.9219    8.2151  -29.8876 H   0  0  0  0  0
  -28.4345    6.0183  -29.2676 H   0  0  0  0  0
  -32.0639    5.2935  -30.3346 H   0  0  0  0  0
  -25.3769    4.9157  -33.9105 H   0  0  0  0  0
  -27.1632    5.4579  -30.8721 H   0  0  0  0  0
  1  2  1  0  0  0
  1  3  2  0  0  0
  1  4  1  0  0  0
  1  5  1  0  0  0
  5  6  1  0  0  0
  6  7  1  0  0  0
  7  8  1  0  0  0
  7  9  1  0  0  0
  8 13  1  0  0  0
  9 10  1  0  0  0
  9 11  1  0  0  0
 11 12  1  0  0  0
 11 13  1  0  0  0
 13 14  1  0  0  0
 14 15  4  0  0  0
 14 24  4  0  0  0
 15 16  4  0  0  0
 16 17  4  0  0  0
 17 18  1  0  0  0
 17 24  4  0  0  0
 18 19  2  0  0  0
 18 20  1  0  0  0
 20 21  4  0  0  0
 21 22  2  0  0  0
 21 23  1  0  0  0
 23 24  1  0  0  0
  2 25  1  0  0  0
  4 26  1  0  0  0
  6 27  1  0  0  0
  6 28  1  0  0  0
  7 29  1  0  0  0
  9 30  1  0  0  0
 10 31  1  0  0  0
 11 32  1  0  0  0
 12 33  1  0  0  0
 13 34  1  0  0  0
 15 35  1  0  0  0
 22 36  1  0  0  0
 23 37  1  0  0  0
M  END
$$$$
