5km2_ligand
  -I-interpret- 

 34 35  0  0  0  0  0  0  0  0999 V2000
  -31.2950    4.2170  -22.7200 O   0  0  0  0  0
  -31.9420    4.2250  -24.0860 P   0  0  0  0  0
  -32.5500    2.8920  -24.4530 O   0  0  0  0  0
  -32.8120    5.4170  -24.3970 O   0  0  0  0  0
  -30.6840    4.4040  -25.0510 O   0  0  0  0  0
  -30.7850    4.2380  -26.4590 C   0  0  0  0  0
  -29.7590    5.0930  -27.1510 C   0  0  0  0  0
  -29.5910    4.6570  -28.5210 O   0  0  0  0  0
  -30.0880    6.5930  -27.2120 C   0  0  0  0  0
  -29.0350    7.3480  -26.6050 O   0  0  0  0  0
  -30.1720    6.8850  -28.7210 C   0  0  0  0  0
  -29.7270    8.1670  -29.1090 O   0  0  0  0  0
  -29.2970    5.7820  -29.3010 C   0  0  0  0  0
  -29.5680    5.4640  -30.7080 N   0  0  0  0  0
  -28.4930    5.4070  -31.6160 C   0  0  0  0  0
  -28.7140    5.1210  -32.9160 N   0  0  0  0  0
  -29.9670    4.8860  -33.3560 C   0  0  0  0  0
  -31.0370    4.9360  -32.4690 C   0  0  0  0  0
  -30.8160    5.2290  -31.1290 C   0  0  0  0  0
  -27.3300    5.6310  -31.2220 O   0  0  0  0  0
  -30.1720    4.5970  -34.6640 N   0  0  0  0  0
  -30.7662    3.4218  -22.6223 H   0  0  0  0  0
  -31.9378    2.1886  -24.2248 H   0  0  0  0  0
  -31.7810    4.5371  -26.7854 H   0  0  0  0  0
  -30.6099    3.1921  -26.7109 H   0  0  0  0  0
  -28.8610    4.9705  -26.5454 H   0  0  0  0  0
  -31.0040    6.8576  -26.6837 H   0  0  0  0  0
  -29.2479    8.2831  -26.6471 H   0  0  0  0  0
  -31.2028    6.8913  -29.0752 H   0  0  0  0  0
  -29.8149    8.2607  -30.0604 H   0  0  0  0  0
  -28.2547    6.1001  -29.2788 H   0  0  0  0  0
  -32.0493    4.7453  -32.8252 H   0  0  0  0  0
  -31.6502    5.2670  -30.4284 H   0  0  0  0  0
  -29.3817    4.5585  -35.3077 H   0  0  0  0  0
  1  2  1  0  0  0
  2  3  1  0  0  0
  2  4  2  0  0  0
  2  5  1  0  0  0
  5  6  1  0  0  0
  6  7  1  0  0  0
  7  8  1  0  0  0
  7  9  1  0  0  0
  8 13  1  0  0  0
  9 10  1  0  0  0
  9 11  1  0  0  0
 11 12  1  0  0  0
 11 13  1  0  0  0
 13 14  1  0  0  0
 14 15  1  0  0  0
 14 19  1  0  0  0
 15 16  1  0  0  0
 15 20  2  0  0  0
 16 17  4  0  0  0
 17 18  1  0  0  0
 17 21  2  0  0  0
 18 19  2  0  0  0
  1 22  1  0  0  0
  3 23  1  0  0  0
  6 24  1  0  0  0
  6 25  1  0  0  0
  7 26  1  0  0  0
  9 27  1  0  0  0
 10 28  1  0  0  0
 11 29  1  0  0  0
 12 30  1  0  0  0
 13 31  1  0  0  0
 18 32  1  0  0  0
 19 33  1  0  0  0
 21 34  1  0  0  0
M  END
$$$$
