5knu_ligand
  -I-interpret- 

 47 48  0  0  0  0  0  0  0  0999 V2000
   -3.0800   29.4000  -42.9330 O   0  0  0  0  0
   -3.9690   30.6210  -43.0240 P   0  0  0  0  0
   -4.1910   30.9900  -44.4750 O   0  0  0  0  0
   -3.2900   31.7740  -42.3170 O   0  0  0  0  0
   -5.5790   30.2680  -42.2270 C   0  0  0  0  0
   -6.2330   28.9830  -42.7660 C   0  0  0  0  0
   -7.4090   28.5200  -41.8730 C   0  0  0  0  0
   -8.0320   27.2930  -42.3750 N   0  0  0  0  0
   -8.4840   27.5580  -43.7480 C   0  0  0  0  0
   -9.9250   27.0310  -43.9360 C   0  0  0  0  0
  -10.7730   27.9790  -44.8000 C   0  0  0  0  0
  -12.2850   27.1470  -45.4070 P   0  0  0  0  0
  -11.9300   26.2800  -46.5960 O   0  0  0  0  0
  -12.8650   26.2830  -44.3060 O   0  0  0  0  0
  -13.2970   28.1950  -45.8150 O   0  0  0  0  0
   -7.0930   26.1750  -42.4360 C   0  0  0  0  0
   -6.5210   25.8900  -41.0310 C   0  0  0  0  0
   -7.2070   25.2740  -39.9320 C   0  0  0  0  0
   -8.4620   24.7750  -39.7420 N   0  0  0  0  0
   -8.8100   24.2530  -38.5720 C   0  0  0  0  0
   -7.9700   24.1920  -37.5420 N   0  0  0  0  0
   -6.7120   24.6660  -37.6500 C   0  0  0  0  0
   -5.8210   24.5980  -36.5550 O   0  0  0  0  0
   -6.2760   25.2390  -38.8830 C   0  0  0  0  0
   -5.1200   25.7800  -39.2950 N   0  0  0  0  0
   -5.2250   26.1780  -40.5630 C   0  0  0  0  0
   -4.7555   31.7649  -44.5242 H   0  0  0  0  0
   -3.8478   32.5535  -42.3700 H   0  0  0  0  0
   -6.2492   31.1012  -42.4384 H   0  0  0  0  0
   -5.4042   30.1346  -41.1594 H   0  0  0  0  0
   -5.4806   28.1944  -42.7785 H   0  0  0  0  0
   -6.6202   29.1878  -43.7641 H   0  0  0  0  0
   -8.1631   29.3071  -41.8687 H   0  0  0  0  0
   -7.0197   28.3199  -40.8748 H   0  0  0  0  0
   -7.8209   27.0520  -44.4496 H   0  0  0  0  0
   -8.4663   28.6322  -43.9322 H   0  0  0  0  0
  -10.3918   26.9535  -42.9541 H   0  0  0  0  0
   -9.8732   26.0649  -44.4380 H   0  0  0  0  0
  -10.1792   28.2913  -45.6590 H   0  0  0  0  0
  -11.0671   28.8344  -44.1918 H   0  0  0  0  0
  -11.2879   25.6186  -46.3280 H   0  0  0  0  0
  -12.2210   25.6190  -44.0490 H   0  0  0  0  0
   -6.2760   26.4289  -43.1114 H   0  0  0  0  0
   -7.6135   25.2885  -42.7983 H   0  0  0  0  0
   -9.8196   23.8605  -38.4509 H   0  0  0  0  0
   -8.2808   23.7823  -36.6611 H   0  0  0  0  0
   -4.4336   26.6509  -41.1445 H   0  0  0  0  0
  1  2  2  0  0  0
  2  3  1  0  0  0
  2  4  1  0  0  0
  2  5  1  0  0  0
  5  6  1  0  0  0
  6  7  1  0  0  0
  7  8  1  0  0  0
  8  9  1  0  0  0
  8 16  1  0  0  0
  9 10  1  0  0  0
 10 11  1  0  0  0
 11 12  1  0  0  0
 12 13  1  0  0  0
 12 14  1  0  0  0
 12 15  2  0  0  0
 16 17  1  0  0  0
 17 18  4  0  0  0
 17 26  4  0  0  0
 18 19  1  0  0  0
 18 24  4  0  0  0
 19 20  2  0  0  0
 20 21  1  0  0  0
 21 22  1  0  0  0
 22 23  2  0  0  0
 22 24  1  0  0  0
 24 25  4  0  0  0
 25 26  4  0  0  0
  3 27  1  0  0  0
  4 28  1  0  0  0
  5 29  1  0  0  0
  5 30  1  0  0  0
  6 31  1  0  0  0
  6 32  1  0  0  0
  7 33  1  0  0  0
  7 34  1  0  0  0
  9 35  1  0  0  0
  9 36  1  0  0  0
 10 37  1  0  0  0
 10 38  1  0  0  0
 11 39  1  0  0  0
 11 40  1  0  0  0
 13 41  1  0  0  0
 14 42  1  0  0  0
 16 43  1  0  0  0
 16 44  1  0  0  0
 20 45  1  0  0  0
 21 46  1  0  0  0
 26 47  1  0  0  0
M  END
$$$$
