5kyk_ligand
  -I-interpret- 

 57 59  0  0  0  0  0  0  0  0999 V2000
  -16.1660  -38.3880  119.0200 C   0  0  0  0  0
  -12.3410  -40.7550  118.4530 C   0  0  0  0  0
  -10.8360  -39.8600  120.4610 C   0  0  0  0  0
  -22.5240  -40.2620  115.2400 C   0  0  0  0  0
  -20.8140  -38.0790  114.4550 O   0  0  0  0  0
  -20.4650  -38.6030  115.7440 S   0  0  0  0  0
  -18.7160  -39.1000  115.6750 C   0  0  0  0  0
  -18.5270  -40.6930  116.5790 P   0  0  0  0  0
  -18.9480  -40.3220  118.0500 O   0  0  0  0  0
  -18.3020  -40.9880  119.1170 C   0  0  0  0  0
  -17.7050  -39.9620  120.0470 C   0  0  0  0  0
  -17.6330  -38.5890  119.3800 C   0  0  0  0  0
  -18.0790  -37.5790  120.2920 O   0  0  0  0  0
  -15.7820  -37.0340  119.2840 O   0  0  0  0  0
  -15.4030  -39.3740  119.9530 C   0  0  0  0  0
  -14.2940  -40.0160  119.1810 N   0  0  0  0  0
  -14.4570  -40.6590  117.9930 C   0  0  0  0  0
  -13.2910  -41.1230  117.5340 N   0  0  0  0  0
  -12.9570  -40.0600  119.4880 C   0  0  0  0  0
  -10.9440  -40.9700  118.4900 C   0  0  0  0  0
  -10.1900  -40.5260  119.4890 N   0  0  0  0  0
  -10.1050  -39.4000  121.4860 N   0  0  0  0  0
  -12.1920  -39.5880  120.5400 N   0  0  0  0  0
  -10.4140  -41.5900  117.5420 O   0  0  0  0  0
  -16.3440  -40.3550  120.3900 O   0  0  0  0  0
  -19.5330  -41.7670  116.0590 O   0  0  0  0  0
  -17.0620  -41.1990  116.4310 O   0  0  0  0  0
  -21.3410  -39.9780  116.0230 N   0  0  0  0  0
  -22.5400  -41.7590  114.8720 C   0  0  0  0  0
  -23.6790  -42.4300  115.4820 N   0  0  0  0  0
  -23.7170  -43.7580  115.5470 C   0  0  0  0  0
  -24.9140  -44.3880  116.1940 C   0  0  0  0  0
  -22.7940  -44.4310  115.0890 O   0  0  0  0  0
  -20.6320  -37.7310  116.8650 O   0  0  0  0  0
  -15.9548  -38.5744  117.9670 H   0  0  0  0  0
  -22.5138  -39.6615  114.3304 H   0  0  0  0  0
  -23.4141  -40.0180  115.8199 H   0  0  0  0  0
  -18.0925  -38.3338  116.1358 H   0  0  0  0  0
  -18.4037  -39.2209  114.6377 H   0  0  0  0  0
  -17.5142  -41.6315  118.7253 H   0  0  0  0  0
  -19.0234  -41.5996  119.6590 H   0  0  0  0  0
  -18.3383  -39.9062  120.9324 H   0  0  0  0  0
  -18.2698  -38.5244  118.4977 H   0  0  0  0  0
  -18.0306  -36.7203  119.8654 H   0  0  0  0  0
  -14.8574  -36.9144  119.0552 H   0  0  0  0  0
  -14.9702  -38.8613  120.8120 H   0  0  0  0  0
  -15.4127  -40.7797  117.4830 H   0  0  0  0  0
   -9.0980  -39.5608  121.5069 H   0  0  0  0  0
  -12.5993  -39.0742  121.3213 H   0  0  0  0  0
  -20.4296  -41.4384  116.1578 H   0  0  0  0  0
  -21.0457  -40.6289  116.7507 H   0  0  0  0  0
  -21.6230  -42.2205  115.2384 H   0  0  0  0  0
  -22.6156  -41.8536  113.7887 H   0  0  0  0  0
  -24.4501  -41.8801  115.8606 H   0  0  0  0  0
  -25.4165  -45.0342  115.4742 H   0  0  0  0  0
  -24.5929  -44.9785  117.0521 H   0  0  0  0  0
  -25.5997  -43.6077  116.5243 H   0  0  0  0  0
  1 12  1  0  0  0
  1 14  1  0  0  0
 15  1  1  0  0  0
  2 18  4  0  0  0
 19  2  4  0  0  0
  2 20  1  0  0  0
  3 21  4  0  0  0
  3 22  2  0  0  0
 23  3  1  0  0  0
 28  4  1  0  0  0
  4 29  1  0  0  0
  6  5  2  0  0  0
  7  6  1  0  0  0
  6 28  1  0  0  0
  6 34  2  0  0  0
  8  7  1  0  0  0
  9  8  1  0  0  0
  8 26  1  0  0  0
  8 27  2  0  0  0
 10  9  1  0  0  0
 11 10  1  0  0  0
 11 12  1  0  0  0
 25 11  1  0  0  0
 12 13  1  0  0  0
 16 15  1  0  0  0
 15 25  1  0  0  0
 16 17  4  0  0  0
 19 16  4  0  0  0
 17 18  4  0  0  0
 19 23  1  0  0  0
 20 21  1  0  0  0
 20 24  2  0  0  0
 29 30  1  0  0  0
 30 31  1  0  0  0
 31 32  1  0  0  0
 31 33  2  0  0  0
  1 35  1  0  0  0
  4 36  1  0  0  0
  4 37  1  0  0  0
  7 38  1  0  0  0
  7 39  1  0  0  0
 10 40  1  0  0  0
 10 41  1  0  0  0
 11 42  1  0  0  0
 12 43  1  0  0  0
 13 44  1  0  0  0
 14 45  1  0  0  0
 15 46  1  0  0  0
 17 47  1  0  0  0
 22 48  1  0  0  0
 23 49  1  0  0  0
 26 50  1  0  0  0
 28 51  1  0  0  0
 29 52  1  0  0  0
 29 53  1  0  0  0
 30 54  1  0  0  0
 32 55  1  0  0  0
 32 56  1  0  0  0
 32 57  1  0  0  0
M  END
$$$$
