5nkk_ligand
  -I-interpret- 

 42 44  0  0  0  0  0  0  0  0999 V2000
  111.2910  294.9700  378.7170 P   0  0  0  0  0
  111.4720  296.4580  378.6100 O   0  0  0  0  0
  110.5050  294.6840  379.9720 O   0  0  0  0  0
  112.6430  294.3020  378.7990 O   0  0  0  0  0
  110.5040  294.4460  377.4130 O   0  0  0  0  0
  110.9050  294.9990  375.9530 P   0  0  0  0  0
  112.3190  294.5980  375.6040 O   0  0  0  0  0
  110.7660  296.4990  375.8870 O   0  0  0  0  0
  109.8550  294.2860  374.9600 O   0  0  0  0  0
  109.2070  295.0500  373.9450 C   0  0  0  0  0
  108.9950  294.2130  372.6920 C   0  0  0  0  0
  107.6200  294.2570  372.3040 O   0  0  0  0  0
  109.8010  294.7830  371.5360 C   0  0  0  0  0
  110.8440  293.8790  371.1620 O   0  0  0  0  0
  108.8280  294.9570  370.3870 C   0  0  0  0  0
  109.2830  294.2300  369.2430 O   0  0  0  0  0
  107.5050  294.3970  370.8850 C   0  0  0  0  0
  106.3910  295.3140  370.5310 N   0  0  0  0  0
  105.7280  295.3230  369.3590 C   0  0  0  0  0
  104.7640  296.2800  369.3460 N   0  0  0  0  0
  104.8030  296.9060  370.5360 C   0  0  0  0  0
  104.0590  298.0110  371.1830 C   0  0  0  0  0
  103.1350  298.6020  370.5850 O   0  0  0  0  0
  104.4070  298.3580  372.4280 N   0  0  0  0  0
  105.3990  297.7390  373.0960 C   0  0  0  0  0
  105.6880  298.1530  374.3540 N   0  0  0  0  0
  106.1220  296.7190  372.5660 N   0  0  0  0  0
  105.8750  296.2670  371.3140 C   0  0  0  0  0
  110.3779  293.7365  380.0597 H   0  0  0  0  0
  112.5255  293.3517  378.8673 H   0  0  0  0  0
  112.3996  293.6424  375.6482 H   0  0  0  0  0
  109.8341  295.9056  373.6945 H   0  0  0  0  0
  108.2364  295.3779  374.3173 H   0  0  0  0  0
  109.3072  293.1927  372.9145 H   0  0  0  0  0
  110.2699  295.7279  371.8105 H   0  0  0  0  0
  111.3432  294.2525  370.4320 H   0  0  0  0  0
  108.7332  296.0005  370.0866 H   0  0  0  0  0
  108.6599  294.3472  368.5222 H   0  0  0  0  0
  107.2873  293.4342  370.4228 H   0  0  0  0  0
  105.9377  294.6494  368.5281 H   0  0  0  0  0
  105.1586  298.9172  374.7737 H   0  0  0  0  0
  106.8620  296.2870  373.1193 H   0  0  0  0  0
  1  2  2  0  0  0
  1  3  1  0  0  0
  1  4  1  0  0  0
  1  5  1  0  0  0
  5  6  1  0  0  0
  6  7  1  0  0  0
  6  8  2  0  0  0
  6  9  1  0  0  0
  9 10  1  0  0  0
 10 11  1  0  0  0
 11 12  1  0  0  0
 11 13  1  0  0  0
 12 17  1  0  0  0
 13 14  1  0  0  0
 13 15  1  0  0  0
 15 16  1  0  0  0
 15 17  1  0  0  0
 17 18  1  0  0  0
 18 19  4  0  0  0
 18 28  4  0  0  0
 19 20  4  0  0  0
 20 21  4  0  0  0
 21 22  1  0  0  0
 21 28  4  0  0  0
 22 23  2  0  0  0
 22 24  1  0  0  0
 24 25  4  0  0  0
 25 26  2  0  0  0
 25 27  1  0  0  0
 27 28  1  0  0  0
  3 29  1  0  0  0
  4 30  1  0  0  0
  7 31  1  0  0  0
 10 32  1  0  0  0
 10 33  1  0  0  0
 11 34  1  0  0  0
 13 35  1  0  0  0
 14 36  1  0  0  0
 15 37  1  0  0  0
 16 38  1  0  0  0
 17 39  1  0  0  0
 19 40  1  0  0  0
 26 41  1  0  0  0
 27 42  1  0  0  0
M  END
$$$$
