5ogk_ligand
  -I-interpret- 

 63 66  0  0  0  0  0  0  0  0999 V2000
    4.6510   20.5310   25.4730 N   0  0  0  0  0
    5.2230   21.7370   25.4570 C   0  0  0  0  0
    5.9570   22.0610   24.3460 N   0  0  0  0  0
    5.0610   22.5550   26.4940 N   0  0  0  0  0
    5.6960   23.7330   26.3340 C   0  0  0  0  0
    6.4570   24.1520   25.2630 C   0  0  0  0  0
    6.6190   23.2580   24.1510 C   0  0  0  0  0
    7.2510   23.4610   23.1150 O   0  0  0  0  0
    6.9400   25.4320   25.4830 N   0  0  0  0  0
    6.4680   25.7600   26.6650 C   0  0  0  0  0
    5.7030   24.7730   27.2340 N   0  0  0  0  0
    5.0070   24.8060   28.5350 C   0  0  0  0  0
    5.9280   24.9250   29.7430 C   0  0  0  0  0
    6.4660   23.6590   30.1090 O   0  0  0  0  0
    4.9460   25.4600   30.7900 C   0  0  0  0  0
    4.2190   24.4120   31.4220 O   0  0  0  0  0
    4.0020   26.3420   29.9630 C   0  0  0  0  0
    4.1900   25.9580   28.5800 O   0  0  0  0  0
    4.2110   27.8280   30.1180 C   0  0  0  0  0
    5.6210   28.0820   30.2920 O   0  0  0  0  0
    6.2690   28.6780   31.6560 P   0  0  0  0  0
    6.3910   30.1500   31.5510 O   0  0  0  0  0
    7.6110   27.9540   31.8250 O   0  0  0  0  0
    5.3490   28.2550   32.8890 O   0  0  0  0  0
    5.6220   27.5820   34.3100 P   0  0  0  0  0
    5.1000   26.1480   34.2210 O   0  0  0  0  0
    7.0530   27.6850   34.6810 O   0  0  0  0  0
    4.7010   28.3450   35.4380 O   0  0  0  0  0
    3.3000   28.4320   35.5210 C   0  0  0  0  0
    2.8660   28.2980   36.8630 O   0  0  0  0  0
    3.4470   29.2680   37.7510 C   0  0  0  0  0
    2.9340   28.9520   39.1380 C   0  0  0  0  0
    3.3440   27.6630   39.5720 O   0  0  0  0  0
    2.8680   29.7850   34.9740 C   0  0  0  0  0
    1.4470   29.8770   34.9770 O   0  0  0  0  0
    3.4640   30.8890   35.8370 C   0  0  0  0  0
    3.0140   32.1620   35.3870 O   0  0  0  0  0
    3.0930   30.6830   37.3010 C   0  0  0  0  0
    3.8050   31.6100   38.1150 O   0  0  0  0  0
    4.7709   19.8991   24.6813 H   0  0  0  0  0
    4.5146   22.3160   27.3215 H   0  0  0  0  0
    6.6643   26.7189   27.1447 H   0  0  0  0  0
    4.4670   23.8612   28.5967 H   0  0  0  0  0
    6.8072   25.5516   29.5932 H   0  0  0  0  0
    7.0406   23.7649   30.8707 H   0  0  0  0  0
    5.4497   25.9900   31.5984 H   0  0  0  0  0
    3.6167   24.7868   32.0688 H   0  0  0  0  0
    2.9867   26.1757   30.3231 H   0  0  0  0  0
    3.6599   28.1906   30.9857 H   0  0  0  0  0
    3.8482   28.3472   29.2309 H   0  0  0  0  0
    7.4576   27.0083   31.8862 H   0  0  0  0  0
    4.1715   26.1612   33.9776 H   0  0  0  0  0
    2.8530   27.6259   34.9391 H   0  0  0  0  0
    4.5359   29.2196   37.7457 H   0  0  0  0  0
    1.8445   28.9744   39.1133 H   0  0  0  0  0
    3.3391   29.6909   39.8294 H   0  0  0  0  0
    3.0004   27.4990   40.4533 H   0  0  0  0  0
    3.2241   29.8947   33.9497 H   0  0  0  0  0
    1.1821   30.7324   34.6309 H   0  0  0  0  0
    4.5497   30.8498   35.7485 H   0  0  0  0  0
    3.3963   32.8486   35.9385 H   0  0  0  0  0
    2.0191   30.8383   37.4047 H   0  0  0  0  0
    3.5905   32.5049   37.8415 H   0  0  0  0  0
  1  2  2  0  0  0
  2  3  4  0  0  0
  2  4  1  0  0  0
  3  7  1  0  0  0
  4  5  1  0  0  0
  5  6  4  0  0  0
  5 11  4  0  0  0
  6  7  1  0  0  0
  6  9  4  0  0  0
  7  8  2  0  0  0
  9 10  4  0  0  0
 10 11  4  0  0  0
 11 12  1  0  0  0
 12 13  1  0  0  0
 12 18  1  0  0  0
 13 14  1  0  0  0
 13 15  1  0  0  0
 15 16  1  0  0  0
 15 17  1  0  0  0
 17 18  1  0  0  0
 17 19  1  0  0  0
 19 20  1  0  0  0
 20 21  1  0  0  0
 21 22  2  0  0  0
 21 23  1  0  0  0
 21 24  1  0  0  0
 24 25  1  0  0  0
 25 26  1  0  0  0
 25 27  2  0  0  0
 25 28  1  0  0  0
 28 29  1  0  0  0
 29 30  1  0  0  0
 29 34  1  0  0  0
 30 31  1  0  0  0
 31 32  1  0  0  0
 31 38  1  0  0  0
 32 33  1  0  0  0
 34 35  1  0  0  0
 34 36  1  0  0  0
 36 37  1  0  0  0
 36 38  1  0  0  0
 38 39  1  0  0  0
  1 40  1  0  0  0
  4 41  1  0  0  0
 10 42  1  0  0  0
 12 43  1  0  0  0
 13 44  1  0  0  0
 14 45  1  0  0  0
 15 46  1  0  0  0
 16 47  1  0  0  0
 17 48  1  0  0  0
 19 49  1  0  0  0
 19 50  1  0  0  0
 23 51  1  0  0  0
 26 52  1  0  0  0
 29 53  1  0  0  0
 31 54  1  0  0  0
 32 55  1  0  0  0
 32 56  1  0  0  0
 33 57  1  0  0  0
 34 58  1  0  0  0
 35 59  1  0  0  0
 36 60  1  0  0  0
 37 61  1  0  0  0
 38 62  1  0  0  0
 39 63  1  0  0  0
M  END
$$$$
