5u51_ligand
  -I-interpret- 

 52 54  0  0  0  0  0  0  0  0999 V2000
    2.2930   16.9790   -5.2910 P   0  0  0  0  0
    2.1050   16.6240   -6.7400 O   0  0  0  0  0
    1.9510   18.4270   -5.0780 O   0  0  0  0  0
    3.7250   16.7320   -4.8990 O   0  0  0  0  0
    1.3010   16.0220   -4.3830 O   0  0  0  0  0
    1.0830   14.4030   -4.6520 P   0  0  0  0  0
   -0.3350   14.0070   -4.2970 O   0  0  0  0  0
    1.3290   14.1040   -6.1080 O   0  0  0  0  0
    2.1350   13.4970   -3.7290 O   0  0  0  0  0
    3.2090   14.1140   -3.0560 C   0  0  0  0  0
    4.2070   13.0460   -2.6140 C   0  0  0  0  0
    3.5240   11.5730   -2.5930 O   0  0  0  0  0
    5.1880   13.0140   -3.4730 C   0  0  0  0  0
    6.4970   13.0170   -2.7370 O   0  0  0  0  0
    5.0380   11.7050   -4.2670 C   0  0  0  0  0
    6.2600   11.1800   -4.5500 O   0  0  0  0  0
    4.2690   10.7760   -3.3150 C   0  0  0  0  0
    3.4330    9.8510   -4.1140 N   0  0  0  0  0
    2.3420    9.8310   -4.8980 C   0  0  0  0  0
    2.1610    8.5550   -5.3050 N   0  0  0  0  0
    3.1310    7.8120   -4.7770 C   0  0  0  0  0
    3.4380    6.3140   -4.8850 C   0  0  0  0  0
    2.7360    5.6180   -5.5370 O   0  0  0  0  0
    4.5630    5.7650   -4.2010 N   0  0  0  0  0
    5.4050    6.6230   -3.4140 C   0  0  0  0  0
    6.5460    6.0590   -2.7210 N   0  0  0  0  0
    5.1110    8.0530   -3.3160 N   0  0  0  0  0
    3.9340    8.6200   -4.0310 C   0  0  0  0  0
    7.2400   14.4820   -2.5230 P   0  0  0  0  0
    7.9570   14.4950   -1.1980 O   0  0  0  0  0
    6.2130   15.5880   -2.5890 O   0  0  0  0  0
    8.3370   14.7050   -3.7320 O   0  0  0  0  0
    7.8800   14.8370   -5.2940 P   0  0  0  0  0
    9.0980   15.1800   -6.1110 O   0  0  0  0  0
    7.3190   13.5150   -5.7440 O   0  0  0  0  0
    6.8280   15.9150   -5.4050 O   0  0  0  0  0
    2.3242   15.6988   -6.8727 H   0  0  0  0  0
    3.9382   15.8062   -5.0369 H   0  0  0  0  0
   -0.4962   14.1959   -3.3697 H   0  0  0  0  0
    2.8344   14.6476   -2.1825 H   0  0  0  0  0
    3.7018   14.8199   -3.7246 H   0  0  0  0  0
    4.5525   13.2952   -1.6107 H   0  0  0  0  0
    5.1649   13.8786   -4.1364 H   0  0  0  0  0
    4.5288   11.8486   -5.2200 H   0  0  0  0  0
    6.1500   10.3648   -5.0449 H   0  0  0  0  0
    4.9223   10.1684   -2.6888 H   0  0  0  0  0
    1.7180   10.6861   -5.1578 H   0  0  0  0  0
    6.7452    5.0614   -2.7945 H   0  0  0  0  0
    5.7114    8.6608   -2.7587 H   0  0  0  0  0
    5.7694   15.5609   -3.4399 H   0  0  0  0  0
    9.4506   16.0238   -5.8190 H   0  0  0  0  0
    7.1977   16.7523   -5.1154 H   0  0  0  0  0
  1  2  1  0  0  0
  1  3  2  0  0  0
  1  4  1  0  0  0
  1  5  1  0  0  0
  5  6  1  0  0  0
  6  7  1  0  0  0
  6  8  2  0  0  0
  6  9  1  0  0  0
  9 10  1  0  0  0
 10 11  1  0  0  0
 11 12  1  0  0  0
 11 13  1  0  0  0
 12 17  1  0  0  0
 13 14  1  0  0  0
 13 15  1  0  0  0
 14 29  1  0  0  0
 15 16  1  0  0  0
 15 17  1  0  0  0
 17 18  1  0  0  0
 18 19  4  0  0  0
 18 28  4  0  0  0
 19 20  4  0  0  0
 20 21  4  0  0  0
 21 22  1  0  0  0
 21 28  4  0  0  0
 22 23  2  0  0  0
 22 24  1  0  0  0
 24 25  4  0  0  0
 25 26  2  0  0  0
 25 27  1  0  0  0
 27 28  1  0  0  0
 29 30  2  0  0  0
 29 31  1  0  0  0
 29 32  1  0  0  0
 32 33  1  0  0  0
 33 34  1  0  0  0
 33 35  2  0  0  0
 33 36  1  0  0  0
  2 37  1  0  0  0
  4 38  1  0  0  0
  7 39  1  0  0  0
 10 40  1  0  0  0
 10 41  1  0  0  0
 11 42  1  0  0  0
 13 43  1  0  0  0
 15 44  1  0  0  0
 16 45  1  0  0  0
 17 46  1  0  0  0
 19 47  1  0  0  0
 26 48  1  0  0  0
 27 49  1  0  0  0
 31 50  1  0  0  0
 34 51  1  0  0  0
 36 52  1  0  0  0
M  END
$$$$
