5ubg_ligand
  -I-interpret- 

 70 73  0  0  0  0  0  0  0  0999 V2000
   11.4250  -22.6380  -21.9140 O   0  0  0  0  0
   12.0060  -22.0040  -23.3590 P   0  0  0  0  0
   11.7690  -23.0130  -24.5610 O   0  0  0  0  0
   11.5000  -20.6510  -23.6840 O   0  0  0  0  0
   13.6270  -22.0250  -23.2410 O   0  0  0  0  0
   14.6740  -20.9870  -23.9010 P   0  0  0  0  0
   15.2100  -21.5270  -25.3160 O   0  0  0  0  0
   14.4270  -19.5370  -23.9130 O   0  0  0  0  0
   15.7380  -21.1400  -22.7490 O   0  0  0  0  0
   17.0600  -21.8960  -22.7880 P   0  0  0  0  0
   16.7480  -23.3450  -22.3080 O   0  0  0  0  0
   17.8480  -21.8450  -24.0490 O   0  0  0  0  0
   17.8140  -21.2140  -21.5220 O   0  0  0  0  0
   17.2130  -21.1590  -20.2340 C   0  0  0  0  0
   18.1110  -20.2890  -19.3590 C   0  0  0  0  0
   19.3910  -20.9540  -19.1590 O   0  0  0  0  0
   18.5200  -18.9430  -19.9370 C   0  0  0  0  0
   17.4930  -18.0050  -19.7630 O   0  0  0  0  0
   19.7220  -18.6300  -19.0110 C   0  0  0  0  0
   19.2570  -18.1240  -17.7690 O   0  0  0  0  0
   20.3700  -19.9700  -18.8100 C   0  0  0  0  0
   21.5720  -20.2110  -19.7050 N   0  0  0  0  0
   22.7820  -20.5430  -19.2410 C   0  0  0  0  0
   21.6740  -20.1370  -21.0210 C   0  0  0  0  0
   22.9400  -20.4240  -21.3890 C   0  0  0  0  0
   23.6180  -20.6820  -20.2730 N   0  0  0  0  0
   23.2920  -20.4140  -22.6930 C   0  0  0  0  0
   24.5590  -20.7020  -22.9910 N   0  0  0  0  0
   20.7440  -19.8470  -21.9390 N   0  0  0  0  0
   21.0720  -19.8280  -23.2640 C   0  0  0  0  0
   22.3810  -20.1130  -23.6490 N   0  0  0  0  0
   22.6330  -20.1430  -25.1070 C   0  0  0  0  0
   23.6170  -19.2260  -25.7190 C   0  0  0  0  0
   22.9300  -18.0210  -26.0630 O   0  0  0  0  0
   23.9340  -20.0130  -26.9880 C   0  0  0  0  0
   22.8800  -19.8560  -27.9540 O   0  0  0  0  0
   23.1840  -21.4840  -25.3040 O   0  0  0  0  0
   23.9130  -21.4650  -26.5480 C   0  0  0  0  0
   25.3170  -22.0360  -26.3120 C   0  0  0  0  0
   26.0880  -21.1520  -25.4890 O   0  0  0  0  0
   27.6920  -21.2080  -25.5430 P   0  0  0  0  0
   28.1310  -22.4500  -24.6540 O   0  0  0  0  0
   28.1290  -21.5630  -27.0240 O   0  0  0  0  0
   28.2940  -19.9840  -24.9610 O   0  0  0  0  0
   11.7977  -23.5120  -21.7765 H   0  0  0  0  0
   12.1064  -23.8792  -24.3214 H   0  0  0  0  0
   15.3566  -22.4741  -25.2611 H   0  0  0  0  0
   16.2400  -23.3089  -21.4942 H   0  0  0  0  0
   17.1148  -22.1589  -19.8114 H   0  0  0  0  0
   16.2093  -20.7383  -20.2946 H   0  0  0  0  0
   17.5009  -20.1344  -18.4691 H   0  0  0  0  0
   18.7387  -18.9296  -21.0047 H   0  0  0  0  0
   17.7654  -17.1617  -20.1322 H   0  0  0  0  0
   20.4007  -17.8850  -19.4262 H   0  0  0  0  0
   20.0074  -17.9328  -17.2015 H   0  0  0  0  0
   20.7154  -20.0190  -17.7773 H   0  0  0  0  0
   23.0430  -20.6781  -18.1914 H   0  0  0  0  0
   25.2214  -20.9189  -22.2463 H   0  0  0  0  0
   24.8660  -20.7054  -23.9637 H   0  0  0  0  0
   20.3171  -19.5921  -24.0141 H   0  0  0  0  0
   21.6950  -19.8465  -25.5763 H   0  0  0  0  0
   24.4819  -18.9562  -25.1130 H   0  0  0  0  0
   23.5477  -17.4051  -26.4640 H   0  0  0  0  0
   24.8745  -19.6856  -27.4312 H   0  0  0  0  0
   23.0949  -20.3564  -28.7446 H   0  0  0  0  0
   23.4589  -22.0776  -27.3268 H   0  0  0  0  0
   25.8180  -22.1513  -27.2732 H   0  0  0  0  0
   25.2272  -22.9989  -25.8092 H   0  0  0  0  0
   27.7495  -23.2527  -25.0170 H   0  0  0  0  0
   27.6854  -22.3672  -27.3033 H   0  0  0  0  0
  1  2  1  0  0  0
  2  3  1  0  0  0
  2  4  2  0  0  0
  2  5  1  0  0  0
  5  6  1  0  0  0
  6  7  1  0  0  0
  6  8  2  0  0  0
  6  9  1  0  0  0
  9 10  1  0  0  0
 10 11  1  0  0  0
 10 12  2  0  0  0
 10 13  1  0  0  0
 13 14  1  0  0  0
 14 15  1  0  0  0
 15 16  1  0  0  0
 15 17  1  0  0  0
 16 21  1  0  0  0
 17 18  1  0  0  0
 17 19  1  0  0  0
 19 20  1  0  0  0
 19 21  1  0  0  0
 21 22  1  0  0  0
 22 23  4  0  0  0
 22 24  4  0  0  0
 23 26  4  0  0  0
 24 25  4  0  0  0
 24 29  4  0  0  0
 25 26  4  0  0  0
 25 27  4  0  0  0
 27 28  1  0  0  0
 27 31  4  0  0  0
 29 30  4  0  0  0
 30 31  4  0  0  0
 31 32  1  0  0  0
 32 33  1  0  0  0
 32 37  1  0  0  0
 33 34  1  0  0  0
 33 35  1  0  0  0
 35 36  1  0  0  0
 35 38  1  0  0  0
 37 38  1  0  0  0
 38 39  1  0  0  0
 39 40  1  0  0  0
 40 41  1  0  0  0
 41 42  1  0  0  0
 41 43  1  0  0  0
 41 44  2  0  0  0
  1 45  1  0  0  0
  3 46  1  0  0  0
  7 47  1  0  0  0
 11 48  1  0  0  0
 14 49  1  0  0  0
 14 50  1  0  0  0
 15 51  1  0  0  0
 17 52  1  0  0  0
 18 53  1  0  0  0
 19 54  1  0  0  0
 20 55  1  0  0  0
 21 56  1  0  0  0
 23 57  1  0  0  0
 28 58  1  0  0  0
 28 59  1  0  0  0
 30 60  1  0  0  0
 32 61  1  0  0  0
 33 62  1  0  0  0
 34 63  1  0  0  0
 35 64  1  0  0  0
 36 65  1  0  0  0
 38 66  1  0  0  0
 39 67  1  0  0  0
 39 68  1  0  0  0
 42 69  1  0  0  0
 43 70  1  0  0  0
M  END
$$$$
