5ujo_ligand
  -I-interpret- 

 11 20  0  0  0  0  0  0  0  0999 V2000
   -2.0930   -9.8100  -25.2130 C   0  0  0  0  0
   -1.7110   -9.5670  -26.4850 C   0  0  0  0  0
   -1.1300  -10.7050  -26.9790 C   0  0  0  0  0
   -1.1420  -11.6590  -25.9930 C   0  0  0  0  0
   -1.7340  -11.1030  -24.8750 C   0  0  0  0  0
    2.1710   -9.6550  -25.7950 C   0  0  0  0  0
    1.5500   -8.4270  -25.6190 C   0  0  0  0  0
    1.1120   -8.3700  -24.2830 C   0  0  0  0  0
    1.4330   -9.5270  -23.6590 C   0  0  0  0  0
    2.1030  -10.3300  -24.5770 C   0  0  0  0  0
    0.1000  -10.0270  -25.3060 Ru  0  0  0  0  0
  2  1  4  0  0  0
  5  1  4  0  0  0
  3  2  4  0  0  0
  4  3  4  0  0  0
  5  4  4  0  0  0
  6  7  4  0  0  0
  6 10  4  0  0  0
  7  8  4  0  0  0
  9  8  4  0  0  0
 10  9  4  0  0  0
 11  1  1  0  0  0
 11  2  1  0  0  0
 11  3  1  0  0  0
 11  4  1  0  0  0
 11  5  1  0  0  0
 11  6  1  0  0  0
 11  7  1  0  0  0
 11  8  1  0  0  0
 11  9  1  0  0  0
 11 10  1  0  0  0
M  END
$$$$
