5vdt_ligand
  -I-interpret- 

 68 74  0  0  0  0  0  0  0  0999 V2000
  -24.8160   15.6940  -20.2560 O   0  0  0  0  0
  -24.6670   14.7340  -20.9400 C   0  0  0  0  0
  -24.7080   13.4200  -20.3640 N   0  0  0  0  0
  -24.5250   12.2580  -21.2050 C   0  0  0  0  0
  -24.5660   10.8900  -20.6090 N   0  0  0  0  0
  -24.2990   12.4210  -22.6360 N   0  0  0  0  0
  -24.2560   13.7920  -23.2340 C   0  0  0  0  0
  -24.4300   14.8960  -22.4410 C   0  0  0  0  0
  -24.3450   16.0170  -23.2420 N   0  0  0  0  0
  -24.1250   15.6080  -24.5070 C   0  0  0  0  0
  -24.0720   14.2200  -24.4990 N   0  0  0  0  0
  -23.8360   13.3530  -25.6990 C   0  0  0  0  0
  -25.2570   12.6600  -26.0060 C   0  0  0  0  0
  -25.0480   11.2650  -26.4770 O   0  0  0  0  0
  -23.4350   14.0390  -26.9920 O   0  0  0  0  0
  -24.4290   13.8350  -27.8400 C   0  0  0  0  0
  -24.7600   15.1030  -28.5800 C   0  0  0  0  0
  -24.5860   16.2110  -27.6880 O   0  0  0  0  0
  -25.0600   17.7260  -28.2120 P   0  0  0  0  0
  -26.6300   17.7800  -28.7350 O   0  0  0  0  0
  -24.0760   18.3950  -29.1580 O   0  0  0  0  0
  -25.0210   18.5830  -26.9620 O   0  0  0  0  0
  -25.7330   13.3700  -26.9250 C   0  0  0  0  0
  -26.6470   12.6040  -27.7530 O   0  0  0  0  0
  -28.3030   13.0560  -27.7320 P   0  0  0  0  0
  -29.1370   12.3710  -28.7790 O   0  0  0  0  0
  -28.7950   12.5250  -26.4200 O   0  0  0  0  0
  -28.5790   14.7600  -27.6330 O   0  0  0  0  0
  -28.6640   15.5130  -28.8270 C   0  0  0  0  0
  -28.7330   16.9990  -28.4240 C   0  0  0  0  0
  -29.8940   17.2150  -27.3080 O   0  0  0  0  0
  -27.6620   17.3360  -27.8080 C   0  0  0  0  0
  -28.1380   18.5880  -26.8420 C   0  0  0  0  0
  -28.4100   19.7550  -27.6440 O   0  0  0  0  0
  -29.2700   18.1400  -26.2660 C   0  0  0  0  0
  -28.9470   17.4600  -25.0250 N   0  0  0  0  0
  -28.8830   16.1530  -24.8520 C   0  0  0  0  0
  -28.5500   15.9080  -23.5650 N   0  0  0  0  0
  -28.4000   17.0970  -22.9250 C   0  0  0  0  0
  -28.6440   18.0780  -23.8210 C   0  0  0  0  0
  -28.5580   19.3930  -23.4180 N   0  0  0  0  0
  -28.2360   19.7100  -22.1490 C   0  0  0  0  0
  -27.9940   18.7820  -21.2580 N   0  0  0  0  0
  -28.0590   17.4700  -21.5800 C   0  0  0  0  0
  -27.7850   16.4340  -20.5640 N   0  0  0  0  0
  -24.7232   10.7744  -19.6078 H   0  0  0  0  0
  -24.1703   11.6012  -23.2291 H   0  0  0  0  0
  -24.0094   16.2508  -25.3797 H   0  0  0  0  0
  -22.9991   12.7054  -25.4377 H   0  0  0  0  0
  -25.9100   12.6012  -25.1352 H   0  0  0  0  0
  -25.8988   10.8587  -26.6578 H   0  0  0  0  0
  -24.1612   13.0797  -28.5788 H   0  0  0  0  0
  -25.7907   15.0687  -28.9329 H   0  0  0  0  0
  -24.1014   15.2129  -29.4415 H   0  0  0  0  0
  -24.0435   17.9051  -29.9830 H   0  0  0  0  0
  -26.2896   14.2152  -26.5201 H   0  0  0  0  0
  -28.8668   12.6725  -29.6495 H   0  0  0  0  0
  -29.5476   15.2286  -29.3983 H   0  0  0  0  0
  -27.7971   15.3269  -29.4610 H   0  0  0  0  0
  -28.9007   17.5710  -29.3366 H   0  0  0  0  0
  -27.2289   16.5034  -27.2537 H   0  0  0  0  0
  -27.3807   18.8756  -26.1127 H   0  0  0  0  0
  -28.6857   20.4765  -27.0739 H   0  0  0  0  0
  -29.9682   18.9315  -25.9937 H   0  0  0  0  0
  -29.0674   15.3990  -25.6172 H   0  0  0  0  0
  -28.1758   20.7589  -21.8586 H   0  0  0  0  0
  -27.8373   15.4468  -20.8153 H   0  0  0  0  0
  -27.5435   16.7056  -19.6110 H   0  0  0  0  0
  1  2  2  0  0  0
  2  3  1  0  0  0
  2  8  1  0  0  0
  3  4  4  0  0  0
  4  5  2  0  0  0
  4  6  1  0  0  0
  6  7  1  0  0  0
  7  8  4  0  0  0
  7 11  4  0  0  0
  8  9  4  0  0  0
  9 10  4  0  0  0
 10 11  4  0  0  0
 11 12  1  0  0  0
 12 13  1  0  0  0
 12 15  1  0  0  0
 13 14  1  0  0  0
 13 23  1  0  0  0
 15 16  1  0  0  0
 16 17  1  0  0  0
 16 23  1  0  0  0
 17 18  1  0  0  0
 18 19  1  0  0  0
 19 20  1  0  0  0
 19 21  1  0  0  0
 19 22  2  0  0  0
 20 32  1  0  0  0
 23 24  1  0  0  0
 24 25  1  0  0  0
 25 26  1  0  0  0
 25 27  2  0  0  0
 25 28  1  0  0  0
 28 29  1  0  0  0
 29 30  1  0  0  0
 30 31  1  0  0  0
 30 32  1  0  0  0
 31 35  1  0  0  0
 32 33  1  0  0  0
 33 34  1  0  0  0
 33 35  1  0  0  0
 35 36  1  0  0  0
 36 37  4  0  0  0
 36 40  4  0  0  0
 37 38  4  0  0  0
 38 39  4  0  0  0
 39 40  4  0  0  0
 39 44  4  0  0  0
 40 41  4  0  0  0
 41 42  4  0  0  0
 42 43  4  0  0  0
 43 44  4  0  0  0
 44 45  1  0  0  0
  5 46  1  0  0  0
  6 47  1  0  0  0
 10 48  1  0  0  0
 12 49  1  0  0  0
 13 50  1  0  0  0
 14 51  1  0  0  0
 16 52  1  0  0  0
 17 53  1  0  0  0
 17 54  1  0  0  0
 21 55  1  0  0  0
 23 56  1  0  0  0
 26 57  1  0  0  0
 29 58  1  0  0  0
 29 59  1  0  0  0
 30 60  1  0  0  0
 32 61  1  0  0  0
 33 62  1  0  0  0
 34 63  1  0  0  0
 35 64  1  0  0  0
 37 65  1  0  0  0
 42 66  1  0  0  0
 45 67  1  0  0  0
 45 68  1  0  0  0
M  END
$$$$
