5WAC_LIGAND
  -I-interpret- 

 33 34  0  0  0  0  0  0  0  0999 V2000
   -1.0750   -3.6750  -13.8120 N   0  0  0  0  0
   -1.6760   -8.3800   -8.0180 O   0  0  0  0  0
   -2.4800   -8.4140   -9.2120 S   0  0  0  0  0
   -2.1840   -9.5940  -10.0020 O   0  0  0  0  0
   -3.9950   -8.4260   -8.6010 N   0  0  0  0  0
   -4.9510   -9.1970   -9.4290 C   0  0  0  0  0
   -6.4180   -9.0600   -8.8020 B   0  0  0  0  0
   -6.7060   -7.5650   -8.5910 O   0  0  0  0  0
   -6.4900   -9.8830   -7.6180 O   0  0  0  0  0
   -2.2080   -7.1060  -10.1330 C   0  0  0  0  0
   -1.7190   -5.9190   -9.5480 C   0  0  0  0  0
   -1.4710   -4.7980  -10.3440 C   0  0  0  0  0
   -1.7090   -4.8210  -11.7280 C   0  0  0  0  0
   -2.2090   -5.9780  -12.3120 C   0  0  0  0  0
   -2.4400   -7.1260  -11.5280 C   0  0  0  0  0
   -1.4480   -3.5660  -12.5210 C   0  0  0  0  0
   -0.8920   -2.4050  -14.4130 N   0  0  0  0  0
   -1.2070   -1.5160  -13.3750 N   0  0  0  0  0
   -1.5550   -2.2560  -12.2030 N   0  0  0  0  0
   -6.5570   -9.3250   -6.1270 P   0  0  0  0  0
   -7.8880   -8.7890   -5.6560 O   0  0  0  0  0
   -5.5270   -8.2380   -5.9580 O   0  0  0  0  0
   -6.2930  -10.4610   -5.1570 O   0  0  0  0  0
   -4.2561   -7.9508   -7.7370 H   0  0  0  0  0
   -4.6568  -10.2464   -9.4468 H   0  0  0  0  0
   -4.9501   -8.8082  -10.4473 H   0  0  0  0  0
   -6.6343   -7.1049   -9.4305 H   0  0  0  0  0
   -1.5346   -5.8765   -8.4746 H   0  0  0  0  0
   -1.0857   -3.8888   -9.8825 H   0  0  0  0  0
   -2.4234   -5.9980  -13.3805 H   0  0  0  0  0
   -2.8012   -8.0388  -12.0016 H   0  0  0  0  0
   -8.5588   -9.4684   -5.7559 H   0  0  0  0  0
   -6.9568  -11.1439   -5.2775 H   0  0  0  0  0
 16  1  4  0  0  0
  1 17  4  0  0  0
  3  2  2  0  0  0
  3  4  2  0  0  0
  3  5  1  0  0  0
 10  3  1  0  0  0
  5  6  1  0  0  0
  6  7  1  0  0  0
  7  8  1  0  0  0
  7  9  1  0  0  0
  9 20  1  0  0  0
 11 10  4  0  0  0
 10 15  4  0  0  0
 12 11  4  0  0  0
 13 12  4  0  0  0
 13 14  4  0  0  0
 13 16  1  0  0  0
 14 15  4  0  0  0
 16 19  4  0  0  0
 17 18  4  0  0  0
 18 19  4  0  0  0
 20 21  1  0  0  0
 20 22  2  0  0  0
 20 23  1  0  0  0
  5 24  1  0  0  0
  6 25  1  0  0  0
  6 26  1  0  0  0
  8 27  1  0  0  0
 11 28  1  0  0  0
 12 29  1  0  0  0
 14 30  1  0  0  0
 15 31  1  0  0  0
 21 32  1  0  0  0
 23 33  1  0  0  0
M  END
$$$$
