5WAF_LIGAND
  -I-interpret- 

 36 37  0  0  0  0  0  0  0  0999 V2000
  -19.1260   -8.6630  -39.0210 C   0  0  0  0  0
  -21.6800   -7.8380  -39.3820 S   0  0  0  0  0
  -17.7100   -8.4530  -39.7240 B   0  0  0  0  0
  -17.3220   -6.9950  -39.6700 O   0  0  0  0  0
  -17.3590   -9.1790  -40.9420 O   0  0  0  0  0
  -20.1370   -7.9910  -39.8310 N   0  0  0  0  0
  -22.0530   -8.8930  -38.4670 O   0  0  0  0  0
  -22.2860   -7.9900  -40.6710 O   0  0  0  0  0
  -21.9180   -6.4460  -38.5170 C   0  0  0  0  0
  -22.1390   -5.0680  -39.0700 C   0  0  0  0  0
  -22.3390   -3.9850  -38.2080 C   0  0  0  0  0
  -22.3590   -4.1100  -36.8380 C   0  0  0  0  0
  -22.1210   -5.3510  -36.2740 C   0  0  0  0  0
  -21.9100   -6.4680  -37.1110 C   0  0  0  0  0
  -22.5900   -2.8610  -36.0620 C   0  0  0  0  0
  -22.5690   -1.5530  -36.3940 N   0  0  0  0  0
  -22.8390   -0.8280  -35.2170 N   0  0  0  0  0
  -23.0560   -1.7230  -34.1660 N   0  0  0  0  0
  -22.8710   -2.9750  -34.7820 N   0  0  0  0  0
  -22.1490   -4.7970  -40.5090 C   0  0  0  0  0
  -21.2830   -5.5640  -41.1400 F   0  0  0  0  0
  -21.7590   -3.5540  -40.6910 F   0  0  0  0  0
  -23.3530   -4.9930  -40.9820 F   0  0  0  0  0
  -17.7040   -8.8470  -42.4730 P   0  0  0  0  0
  -16.5860   -8.0210  -43.0570 O   0  0  0  0  0
  -17.8160  -10.0420  -43.3850 O   0  0  0  0  0
  -19.0350   -8.0760  -42.3050 O   0  0  0  0  0
  -19.1118   -8.2452  -38.0143 H   0  0  0  0  0
  -19.3529   -9.7262  -38.9422 H   0  0  0  0  0
  -17.6001   -6.6219  -38.8303 H   0  0  0  0  0
  -19.8537   -7.5972  -40.7282 H   0  0  0  0  0
  -22.4859   -2.9959  -38.6417 H   0  0  0  0  0
  -22.0966   -5.4653  -35.1903 H   0  0  0  0  0
  -21.7256   -7.4272  -36.6273 H   0  0  0  0  0
  -16.4571   -7.2348  -42.5214 H   0  0  0  0  0
  -18.8993   -7.3301  -41.7161 H   0  0  0  0  0
  1  3  1  0  0  0
  1  6  1  0  0  0
  6  2  1  0  0  0
  2  7  2  0  0  0
  2  8  2  0  0  0
  2  9  1  0  0  0
  3  4  1  0  0  0
  3  5  1  0  0  0
  5 24  1  0  0  0
  9 10  4  0  0  0
  9 14  4  0  0  0
 10 11  4  0  0  0
 10 20  1  0  0  0
 11 12  4  0  0  0
 12 13  4  0  0  0
 12 15  1  0  0  0
 13 14  4  0  0  0
 15 16  4  0  0  0
 15 19  4  0  0  0
 16 17  4  0  0  0
 17 18  4  0  0  0
 18 19  4  0  0  0
 20 21  1  0  0  0
 20 22  1  0  0  0
 20 23  1  0  0  0
 24 25  1  0  0  0
 24 26  2  0  0  0
 24 27  1  0  0  0
  1 28  1  0  0  0
  1 29  1  0  0  0
  4 30  1  0  0  0
  6 31  1  0  0  0
 11 32  1  0  0  0
 13 33  1  0  0  0
 14 34  1  0  0  0
 25 35  1  0  0  0
 27 36  1  0  0  0
M  END
$$$$
