5y61_ligand
  -I-interpret- 

 37 39  0  0  0  0  0  0  0  0999 V2000
  -50.5330    7.4400   -5.2360 P   0  0  0  0  0
  -51.7450    7.7540   -6.0740 O   0  0  0  0  0
  -49.7730    6.2880   -5.8110 O   0  0  0  0  0
  -49.6430    8.6400   -5.3130 O   0  0  0  0  0
  -51.0000    7.1570   -3.7440 O   0  0  0  0  0
  -51.1090    5.7990   -3.2760 C   0  0  0  0  0
  -51.6000    5.8280   -1.8820 C   0  0  0  0  0
  -52.9910    5.4910   -1.8060 O   0  0  0  0  0
  -50.9470    4.8580   -0.9980 C   0  0  0  0  0
  -50.7220    5.5740    0.2030 O   0  0  0  0  0
  -51.9700    3.8140   -0.7900 C   0  0  0  0  0
  -51.7930    3.0980    0.4030 O   0  0  0  0  0
  -53.1320    4.6770   -0.6320 C   0  0  0  0  0
  -54.2860    3.9210   -0.7120 N   0  0  0  0  0
  -55.3910    4.4230   -1.2140 C   0  0  0  0  0
  -56.3620    3.5020   -1.1860 N   0  0  0  0  0
  -55.8530    2.3730   -0.6470 C   0  0  0  0  0
  -56.4540    1.1300   -0.4010 C   0  0  0  0  0
  -57.6410    0.9300   -0.6890 O   0  0  0  0  0
  -55.7020    0.1890    0.1200 N   0  0  0  0  0
  -54.4610    0.4060    0.4260 C   0  0  0  0  0
  -53.7980   -0.6440    0.9990 N   0  0  0  0  0
  -53.8430    1.5650    0.2280 N   0  0  0  0  0
  -54.5070    2.5990   -0.3220 C   0  0  0  0  0
  -52.2168    8.4951   -5.6871 H   0  0  0  0  0
  -50.1020    9.4012   -4.9504 H   0  0  0  0  0
  -50.1366    5.3085   -3.3203 H   0  0  0  0  0
  -51.8018    5.2405   -3.9054 H   0  0  0  0  0
  -51.3854    6.8478   -1.5627 H   0  0  0  0  0
  -50.0177    4.4214   -1.3641 H   0  0  0  0  0
  -50.2918    4.9998    0.8408 H   0  0  0  0  0
  -51.9902    3.0573   -1.5743 H   0  0  0  0  0
  -52.4841    2.4365    0.4834 H   0  0  0  0  0
  -53.1905    5.2244    0.3087 H   0  0  0  0  0
  -55.5009    5.4378   -1.5963 H   0  0  0  0  0
  -54.2830   -1.5268    1.1597 H   0  0  0  0  0
  -52.8638    1.6718    0.4931 H   0  0  0  0  0
  1  2  1  0  0  0
  1  3  2  0  0  0
  1  4  1  0  0  0
  1  5  1  0  0  0
  5  6  1  0  0  0
  6  7  1  0  0  0
  7  8  1  0  0  0
  7  9  1  0  0  0
  8 13  1  0  0  0
  9 10  1  0  0  0
  9 11  1  0  0  0
 11 12  1  0  0  0
 11 13  1  0  0  0
 13 14  1  0  0  0
 14 15  4  0  0  0
 14 24  4  0  0  0
 15 16  4  0  0  0
 16 17  4  0  0  0
 17 18  1  0  0  0
 17 24  4  0  0  0
 18 19  2  0  0  0
 18 20  1  0  0  0
 20 21  4  0  0  0
 21 22  2  0  0  0
 21 23  1  0  0  0
 23 24  1  0  0  0
  2 25  1  0  0  0
  4 26  1  0  0  0
  6 27  1  0  0  0
  6 28  1  0  0  0
  7 29  1  0  0  0
  9 30  1  0  0  0
 10 31  1  0  0  0
 11 32  1  0  0  0
 12 33  1  0  0  0
 13 34  1  0  0  0
 15 35  1  0  0  0
 22 36  1  0  0  0
 23 37  1  0  0  0
M  END
$$$$
