5y6g_ligand
  -I-interpret- 

 68 74  0  0  0  0  0  0  0  0999 V2000
  -29.5990   40.9110  -17.2990 P   0  0  0  0  0
  -29.2310   39.7020  -16.3120 O   0  0  0  0  0
  -29.9280   40.3800  -18.6450 O   0  0  0  0  0
  -30.8400   41.7470  -16.7150 O   0  0  0  0  0
  -31.4210   42.8330  -17.4290 C   0  0  0  0  0
  -32.3620   43.6380  -16.5290 C   0  0  0  0  0
  -33.3740   42.7970  -15.9640 O   0  0  0  0  0
  -31.6230   44.2350  -15.3230 C   0  0  0  0  0
  -30.9410   45.4470  -15.6490 O   0  0  0  0  0
  -32.7960   44.4850  -14.3640 C   0  0  0  0  0
  -33.4850   45.6960  -14.6790 O   0  0  0  0  0
  -33.6910   43.2720  -14.6460 C   0  0  0  0  0
  -33.4040   42.2480  -13.6420 N   0  0  0  0  0
  -32.6620   41.1170  -13.8210 C   0  0  0  0  0
  -32.6240   40.4430  -12.7110 N   0  0  0  0  0
  -33.3340   41.0950  -11.7590 C   0  0  0  0  0
  -33.6240   40.8340  -10.4010 C   0  0  0  0  0
  -33.1980   39.8300   -9.8510 O   0  0  0  0  0
  -34.3850   41.7260   -9.7300 N   0  0  0  0  0
  -34.8540   42.8440  -10.3550 C   0  0  0  0  0
  -35.6250   43.7300   -9.6440 N   0  0  0  0  0
  -34.5880   43.0980  -11.6180 N   0  0  0  0  0
  -33.8400   42.2580  -12.3450 C   0  0  0  0  0
  -29.6660   45.9570  -14.8120 P   0  0  0  0  0
  -30.0030   45.8810  -13.2400 O   0  0  0  0  0
  -29.3620   47.3520  -15.2020 O   0  0  0  0  0
  -28.4030   45.0100  -15.1270 O   0  0  0  0  0
  -27.8360   44.9370  -16.4310 C   0  0  0  0  0
  -26.9330   43.7090  -16.5560 C   0  0  0  0  0
  -25.8830   43.7570  -15.5870 O   0  0  0  0  0
  -27.6820   42.4060  -16.2620 C   0  0  0  0  0
  -28.3390   41.9050  -17.4210 O   0  0  0  0  0
  -26.5330   41.4730  -15.8630 C   0  0  0  0  0
  -25.8850   40.9440  -17.0240 O   0  0  0  0  0
  -25.6100   42.4340  -15.1090 C   0  0  0  0  0
  -25.9030   42.3520  -13.6780 N   0  0  0  0  0
  -26.6080   43.2690  -12.9540 C   0  0  0  0  0
  -26.6830   42.8830  -11.7160 N   0  0  0  0  0
  -26.0400   41.7000  -11.5710 C   0  0  0  0  0
  -25.8060   40.8380  -10.4750 C   0  0  0  0  0
  -26.2260   41.1080   -9.3610 O   0  0  0  0  0
  -25.1060   39.7050  -10.6900 N   0  0  0  0  0
  -24.6410   39.4110  -11.9370 C   0  0  0  0  0
  -23.9310   38.2510  -12.1170 N   0  0  0  0  0
  -24.8470   40.2040  -12.9660 N   0  0  0  0  0
  -25.5350   41.3440  -12.8270 C   0  0  0  0  0
  -29.0194   40.0524  -15.4436 H   0  0  0  0  0
  -31.9930   42.4352  -18.2672 H   0  0  0  0  0
  -30.6238   43.4892  -17.7783 H   0  0  0  0  0
  -32.7808   44.4171  -17.1660 H   0  0  0  0  0
  -30.8352   43.5963  -14.9236 H   0  0  0  0  0
  -32.4904   44.5922  -13.3232 H   0  0  0  0  0
  -34.2097   45.8204  -14.0617 H   0  0  0  0  0
  -34.7498   43.5259  -14.5960 H   0  0  0  0  0
  -32.1761   40.8242  -14.7517 H   0  0  0  0  0
  -35.8391   43.5473   -8.6636 H   0  0  0  0  0
  -34.9563   43.9458  -12.0493 H   0  0  0  0  0
  -30.1983   44.9724  -12.9993 H   0  0  0  0  0
  -27.2411   45.8329  -16.6086 H   0  0  0  0  0
  -28.6404   44.8604  -17.1626 H   0  0  0  0  0
  -26.5614   43.7244  -17.5806 H   0  0  0  0  0
  -28.4643   42.5165  -15.5110 H   0  0  0  0  0
  -26.8402   40.6035  -15.2819 H   0  0  0  0  0
  -25.1700   40.3634  -16.7534 H   0  0  0  0  0
  -24.5619   42.1813  -15.2694 H   0  0  0  0  0
  -27.0420   44.1856  -13.3536 H   0  0  0  0  0
  -23.7609   37.6293  -11.3265 H   0  0  0  0  0
  -24.4779   39.9471  -13.8815 H   0  0  0  0  0
  1  2  1  0  0  0
  1  3  2  0  0  0
  1  4  1  0  0  0
  1 32  1  0  0  0
  4  5  1  0  0  0
  5  6  1  0  0  0
  6  7  1  0  0  0
  6  8  1  0  0  0
  7 12  1  0  0  0
  8  9  1  0  0  0
  8 10  1  0  0  0
  9 24  1  0  0  0
 10 11  1  0  0  0
 10 12  1  0  0  0
 12 13  1  0  0  0
 13 14  4  0  0  0
 13 23  4  0  0  0
 14 15  4  0  0  0
 15 16  4  0  0  0
 16 17  1  0  0  0
 16 23  4  0  0  0
 17 18  2  0  0  0
 17 19  1  0  0  0
 19 20  4  0  0  0
 20 21  2  0  0  0
 20 22  1  0  0  0
 22 23  1  0  0  0
 24 25  1  0  0  0
 24 26  2  0  0  0
 24 27  1  0  0  0
 27 28  1  0  0  0
 28 29  1  0  0  0
 29 30  1  0  0  0
 29 31  1  0  0  0
 30 35  1  0  0  0
 31 32  1  0  0  0
 31 33  1  0  0  0
 33 34  1  0  0  0
 33 35  1  0  0  0
 35 36  1  0  0  0
 36 37  4  0  0  0
 36 46  4  0  0  0
 37 38  4  0  0  0
 38 39  4  0  0  0
 39 40  1  0  0  0
 39 46  4  0  0  0
 40 41  2  0  0  0
 40 42  1  0  0  0
 42 43  4  0  0  0
 43 44  2  0  0  0
 43 45  1  0  0  0
 45 46  1  0  0  0
  2 47  1  0  0  0
  5 48  1  0  0  0
  5 49  1  0  0  0
  6 50  1  0  0  0
  8 51  1  0  0  0
 10 52  1  0  0  0
 11 53  1  0  0  0
 12 54  1  0  0  0
 14 55  1  0  0  0
 21 56  1  0  0  0
 22 57  1  0  0  0
 25 58  1  0  0  0
 28 59  1  0  0  0
 28 60  1  0  0  0
 29 61  1  0  0  0
 31 62  1  0  0  0
 33 63  1  0  0  0
 34 64  1  0  0  0
 35 65  1  0  0  0
 37 66  1  0  0  0
 44 67  1  0  0  0
 45 68  1  0  0  0
M  END
$$$$
