5yvt_ligand
  -I-interpret- 

 72 76  0  0  0  0  0  0  0  0999 V2000
   47.8940  -20.3780   34.3680 P   0  0  0  0  0
   48.4460  -19.2680   35.2310 O   0  0  0  0  0
   46.9090  -20.0360   33.2650 O   0  0  0  0  0
   49.1530  -21.1650   33.7210 O   0  0  0  0  0
   50.0710  -20.4670   32.8630 C   0  0  0  0  0
   51.5390  -20.5090   33.3240 C   0  0  0  0  0
   52.1630  -19.2570   33.0000 O   0  0  0  0  0
   51.7540  -20.7460   34.8180 C   0  0  0  0  0
   52.6150  -21.8800   34.9860 O   0  0  0  0  0
   52.3870  -19.4730   35.3690 C   0  0  0  0  0
   53.6010  -19.7210   36.0890 O   0  0  0  0  0
   52.6530  -18.5720   34.1650 C   0  0  0  0  0
   51.9240  -17.2850   34.3320 N   0  0  0  0  0
   50.5840  -17.1270   34.2230 C   0  0  0  0  0
   50.2180  -15.8400   34.4340 N   0  0  0  0  0
   51.3400  -15.1360   34.6790 C   0  0  0  0  0
   51.6650  -13.7150   34.9810 C   0  0  0  0  0
   50.6840  -12.7820   35.0570 N   0  0  0  0  0
   52.9740  -13.3890   35.1770 N   0  0  0  0  0
   53.9630  -14.3130   35.1020 C   0  0  0  0  0
   53.7360  -15.6190   34.8290 N   0  0  0  0  0
   52.4680  -16.0910   34.6130 C   0  0  0  0  0
   47.2440  -21.4460   35.4010 O   0  0  0  0  0
   46.3670  -22.7460   34.9950 P   0  0  0  0  0
   47.1680  -23.9810   35.3470 O   0  0  0  0  0
   45.8020  -22.6010   33.6010 O   0  0  0  0  0
   45.1260  -22.6660   36.0230 O   0  0  0  0  0
   45.2970  -22.5740   37.4400 C   0  0  0  0  0
   44.0640  -21.9090   38.0480 C   0  0  0  0  0
   43.7610  -20.6980   37.3440 O   0  0  0  0  0
   42.8330  -22.8050   37.9580 C   0  0  0  0  0
   42.2520  -22.9610   39.2600 O   0  0  0  0  0
   41.8850  -22.0940   37.0010 C   0  0  0  0  0
   40.5100  -22.1560   37.3980 O   0  0  0  0  0
   42.3700  -20.6490   37.0060 C   0  0  0  0  0
   42.0730  -19.9350   35.7480 N   0  0  0  0  0
   41.2760  -18.8510   35.8490 C   0  0  0  0  0
   40.9050  -18.0800   34.7420 C   0  0  0  0  0
   40.0080  -16.8780   34.9420 C   0  0  0  0  0
   39.6780  -16.5490   36.0760 O   0  0  0  0  0
   39.5860  -16.1800   33.8840 N   0  0  0  0  0
   41.4090  -18.4580   33.3540 C   0  0  0  0  0
   42.2680  -19.6470   33.3650 C   0  0  0  0  0
   42.5640  -20.3320   34.5500 C   0  0  0  0  0
   46.6507  -20.8396   32.8077 H   0  0  0  0  0
   49.7689  -19.4197   32.8596 H   0  0  0  0  0
   50.0297  -20.9553   31.8893 H   0  0  0  0  0
   51.9734  -21.3631   32.8044 H   0  0  0  0  0
   50.8252  -20.9573   35.3480 H   0  0  0  0  0
   52.1864  -22.6614   34.6293 H   0  0  0  0  0
   51.7131  -19.0083   36.0887 H   0  0  0  0  0
   53.9555  -18.8895   36.4124 H   0  0  0  0  0
   53.7175  -18.3581   34.0695 H   0  0  0  0  0
   49.8874  -17.9336   33.9943 H   0  0  0  0  0
   49.7117  -13.0509   34.9066 H   0  0  0  0  0
   50.9184  -11.8112   35.2646 H   0  0  0  0  0
   54.9901  -13.9887   35.2696 H   0  0  0  0  0
   47.4554  -23.9248   36.2612 H   0  0  0  0  0
   46.1831  -21.9807   37.6653 H   0  0  0  0  0
   45.4212  -23.5719   37.8606 H   0  0  0  0  0
   44.2970  -21.7127   39.0945 H   0  0  0  0  0
   43.0666  -23.8074   37.5991 H   0  0  0  0  0
   41.4779  -23.5254   39.1982 H   0  0  0  0  0
   41.9058  -22.5671   36.0193 H   0  0  0  0  0
   39.9709  -21.6907   36.7542 H   0  0  0  0  0
   41.8314  -20.0546   37.7441 H   0  0  0  0  0
   40.9060  -18.5642   36.8333 H   0  0  0  0  0
   38.9847  -15.3668   34.0164 H   0  0  0  0  0
   39.8651  -16.4603   32.9438 H   0  0  0  0  0
   41.1579  -17.9038   32.4496 H   0  0  0  0  0
   42.6872  -20.0071   32.4255 H   0  0  0  0  0
   43.2083  -21.2102   34.5068 H   0  0  0  0  0
  1  2  2  0  0  0
  1  3  1  0  0  0
  1  4  1  0  0  0
  1 23  1  0  0  0
  4  5  1  0  0  0
  5  6  1  0  0  0
  6  7  1  0  0  0
  6  8  1  0  0  0
  7 12  1  0  0  0
  8  9  1  0  0  0
  8 10  1  0  0  0
 10 11  1  0  0  0
 10 12  1  0  0  0
 12 13  1  0  0  0
 13 14  4  0  0  0
 13 22  4  0  0  0
 14 15  4  0  0  0
 15 16  4  0  0  0
 16 17  4  0  0  0
 16 22  4  0  0  0
 17 18  1  0  0  0
 17 19  4  0  0  0
 19 20  4  0  0  0
 20 21  4  0  0  0
 21 22  4  0  0  0
 23 24  1  0  0  0
 24 25  1  0  0  0
 24 26  2  0  0  0
 24 27  1  0  0  0
 27 28  1  0  0  0
 28 29  1  0  0  0
 29 30  1  0  0  0
 29 31  1  0  0  0
 30 35  1  0  0  0
 31 32  1  0  0  0
 31 33  1  0  0  0
 33 34  1  0  0  0
 33 35  1  0  0  0
 35 36  1  0  0  0
 36 37  4  0  0  0
 36 44  4  0  0  0
 37 38  4  0  0  0
 38 39  1  0  0  0
 38 42  4  0  0  0
 39 40  2  0  0  0
 39 41  1  0  0  0
 42 43  4  0  0  0
 43 44  4  0  0  0
  3 45  1  0  0  0
  5 46  1  0  0  0
  5 47  1  0  0  0
  6 48  1  0  0  0
  8 49  1  0  0  0
  9 50  1  0  0  0
 10 51  1  0  0  0
 11 52  1  0  0  0
 12 53  1  0  0  0
 14 54  1  0  0  0
 18 55  1  0  0  0
 18 56  1  0  0  0
 20 57  1  0  0  0
 25 58  1  0  0  0
 28 59  1  0  0  0
 28 60  1  0  0  0
 29 61  1  0  0  0
 31 62  1  0  0  0
 32 63  1  0  0  0
 33 64  1  0  0  0
 34 65  1  0  0  0
 35 66  1  0  0  0
 37 67  1  0  0  0
 41 68  1  0  0  0
 41 69  1  0  0  0
 42 70  1  0  0  0
 43 71  1  0  0  0
 44 72  1  0  0  0
M  END
$$$$
