6a05_ligand
  -I-interpret- 

 68 74  0  0  0  0  0  0  0  0999 V2000
   25.7110    0.0890   23.3660 O   0  0  0  0  0
   24.6740    0.3010   23.9700 C   0  0  0  0  0
   24.7010    0.8400   25.2040 N   0  0  0  0  0
   23.5370    1.0700   25.8810 C   0  0  0  0  0
   23.5640    1.6080   27.1370 N   0  0  0  0  0
   22.3600    0.7860   25.3770 N   0  0  0  0  0
   22.2490    0.2630   24.1610 C   0  0  0  0  0
   23.4070   -0.0020   23.4090 C   0  0  0  0  0
   22.9900   -0.5410   22.2380 N   0  0  0  0  0
   21.6940   -0.6100   22.2460 C   0  0  0  0  0
   21.1710   -0.1160   23.4070 N   0  0  0  0  0
   19.7530   -0.0260   23.8320 C   0  0  0  0  0
   19.0350    1.3070   23.4980 C   0  0  0  0  0
   18.3620    1.7850   24.6490 O   0  0  0  0  0
   19.0030   -0.9910   23.1300 O   0  0  0  0  0
   18.5590   -0.3160   21.9520 C   0  0  0  0  0
   17.7090   -1.2330   21.0940 C   0  0  0  0  0
   18.7420   -2.0240   20.5010 O   0  0  0  0  0
   18.9700   -1.9540   18.9240 P   0  0  0  0  0
   18.4990   -0.4700   18.5390 O   0  0  0  0  0
   20.3970   -2.1730   18.5660 O   0  0  0  0  0
   18.0300   -3.1010   18.3160 O   0  0  0  0  0
   17.9110    0.9340   22.5210 C   0  0  0  0  0
   17.5770    1.9200   21.5350 O   0  0  0  0  0
   18.2320    3.3520   21.1360 P   0  0  0  0  0
   19.5540    3.7770   21.9380 O   0  0  0  0  0
   17.1850    4.4050   21.1380 O   0  0  0  0  0
   18.6200    3.1740   19.6040 O   0  0  0  0  0
   17.8030    2.3420   18.7860 C   0  0  0  0  0
   18.8760    1.7120   17.9160 C   0  0  0  0  0
   19.2760    2.5290   16.8150 O   0  0  0  0  0
   18.5940    0.3260   17.3640 C   0  0  0  0  0
   19.8810    0.2500   16.5390 C   0  0  0  0  0
   19.5670   -0.3240   15.2700 O   0  0  0  0  0
   20.3110    1.7250   16.2940 C   0  0  0  0  0
   21.5720    2.0380   16.9700 N   0  0  0  0  0
   21.7830    2.7580   18.1230 C   0  0  0  0  0
   23.0420    2.8230   18.4120 N   0  0  0  0  0
   23.7210    2.1430   17.4560 C   0  0  0  0  0
   22.7940    1.6390   16.5220 C   0  0  0  0  0
   23.2140    0.9340   15.4700 N   0  0  0  0  0
   24.5010    0.7020   15.3180 C   0  0  0  0  0
   25.4060    1.1500   16.1730 N   0  0  0  0  0
   25.0690    1.8700   17.2410 C   0  0  0  0  0
   26.0040    2.3430   18.1300 N   0  0  0  0  0
   24.4563    1.8399   27.5734 H   0  0  0  0  0
   21.5196    0.9689   25.9254 H   0  0  0  0  0
   21.0969   -1.0123   21.4276 H   0  0  0  0  0
   19.7953   -0.1498   24.9141 H   0  0  0  0  0
   19.7484    2.0406   23.1225 H   0  0  0  0  0
   17.9185    2.6102   24.4394 H   0  0  0  0  0
   19.3262   -0.0278   21.2334 H   0  0  0  0  0
   17.0622   -0.7204   20.3819 H   0  0  0  0  0
   16.9573   -1.8017   21.6414 H   0  0  0  0  0
   17.1184   -2.9311   18.5643 H   0  0  0  0  0
   16.9262    0.8197   22.9741 H   0  0  0  0  0
   20.1924    3.0609   21.9028 H   0  0  0  0  0
   17.0239    2.8698   18.2360 H   0  0  0  0  0
   17.1866    1.6298   19.3346 H   0  0  0  0  0
   19.6763    1.6151   18.6497 H   0  0  0  0  0
   17.7212    0.0499   16.7723 H   0  0  0  0  0
   20.6527   -0.3361   17.0381 H   0  0  0  0  0
   20.3647   -0.3791   14.7388 H   0  0  0  0  0
   20.4716    1.9018   15.2305 H   0  0  0  0  0
   20.9912    3.2149   18.7166 H   0  0  0  0  0
   24.8326    0.1205   14.4577 H   0  0  0  0  0
   25.7080    2.8890   18.9391 H   0  0  0  0  0
   26.9940    2.1481   17.9808 H   0  0  0  0  0
  1  2  2  0  0  0
  2  3  1  0  0  0
  2  8  1  0  0  0
  3  4  4  0  0  0
  4  5  2  0  0  0
  4  6  1  0  0  0
  6  7  1  0  0  0
  7  8  4  0  0  0
  7 11  4  0  0  0
  8  9  4  0  0  0
  9 10  4  0  0  0
 10 11  4  0  0  0
 11 12  1  0  0  0
 12 13  1  0  0  0
 12 15  1  0  0  0
 13 14  1  0  0  0
 13 23  1  0  0  0
 15 16  1  0  0  0
 16 17  1  0  0  0
 16 23  1  0  0  0
 17 18  1  0  0  0
 18 19  1  0  0  0
 19 20  1  0  0  0
 19 21  2  0  0  0
 19 22  1  0  0  0
 20 32  1  0  0  0
 23 24  1  0  0  0
 24 25  1  0  0  0
 25 26  1  0  0  0
 25 27  2  0  0  0
 25 28  1  0  0  0
 28 29  1  0  0  0
 29 30  1  0  0  0
 30 31  1  0  0  0
 30 32  1  0  0  0
 31 35  1  0  0  0
 32 33  1  0  0  0
 33 34  1  0  0  0
 33 35  1  0  0  0
 35 36  1  0  0  0
 36 37  4  0  0  0
 36 40  4  0  0  0
 37 38  4  0  0  0
 38 39  4  0  0  0
 39 40  4  0  0  0
 39 44  4  0  0  0
 40 41  4  0  0  0
 41 42  4  0  0  0
 42 43  4  0  0  0
 43 44  4  0  0  0
 44 45  1  0  0  0
  5 46  1  0  0  0
  6 47  1  0  0  0
 10 48  1  0  0  0
 12 49  1  0  0  0
 13 50  1  0  0  0
 14 51  1  0  0  0
 16 52  1  0  0  0
 17 53  1  0  0  0
 17 54  1  0  0  0
 22 55  1  0  0  0
 23 56  1  0  0  0
 26 57  1  0  0  0
 29 58  1  0  0  0
 29 59  1  0  0  0
 30 60  1  0  0  0
 32 61  1  0  0  0
 33 62  1  0  0  0
 34 63  1  0  0  0
 35 64  1  0  0  0
 37 65  1  0  0  0
 42 66  1  0  0  0
 45 67  1  0  0  0
 45 68  1  0  0  0
M  END
$$$$
