6a06_ligand
  -I-interpret- 

 68 74  0  0  0  0  0  0  0  0999 V2000
   24.6300    0.3890  -24.3710 C   0  0  0  0  0
   26.7490    1.6710  -21.7960 N   0  0  0  0  0
   25.4920    1.4030  -22.4640 C   0  0  0  0  0
   25.6900    0.7360  -23.5950 N   0  0  0  0  0
   23.3720    0.7260  -23.9830 N   0  0  0  0  0
   23.1880    1.4070  -22.8440 C   0  0  0  0  0
   24.2240    1.7480  -22.0740 C   0  0  0  0  0
   23.7500    2.4160  -21.0060 N   0  0  0  0  0
   22.4080    2.4720  -21.1090 C   0  0  0  0  0
   22.0680    1.8460  -22.2500 N   0  0  0  0  0
   20.7310    1.7090  -22.7320 C   0  0  0  0  0
   20.1860    0.3370  -22.4580 C   0  0  0  0  0
   19.2510    0.0050  -23.4760 O   0  0  0  0  0
   19.4890    0.5390  -21.1690 C   0  0  0  0  0
   18.8040    1.7870  -21.4160 C   0  0  0  0  0
   18.4390    2.5060  -20.0920 C   0  0  0  0  0
   19.6970    2.6900  -19.4400 O   0  0  0  0  0
   19.8040    3.4070  -17.8900 P   0  0  0  0  0
   21.2290    3.7770  -17.5390 O   0  0  0  0  0
   19.0430    2.4260  -16.7920 O   0  0  0  0  0
   19.2290    0.9910  -17.0110 C   0  0  0  0  0
   17.8930    0.4100  -17.0120 C   0  0  0  0  0
   17.0980    1.0740  -16.0260 O   0  0  0  0  0
   18.0900   -1.0360  -16.6320 C   0  0  0  0  0
   18.2480   -1.8900  -17.8030 C   0  0  0  0  0
   19.3400   -1.3680  -18.6070 O   0  0  0  0  0
   19.2220   -1.8960  -20.1920 P   0  0  0  0  0
   18.5450   -0.5390  -20.9270 O   0  0  0  0  0
   20.6570   -2.0550  -20.6320 O   0  0  0  0  0
   18.4020   -3.1410  -20.3840 O   0  0  0  0  0
   19.3310   -1.0470  -15.8090 O   0  0  0  0  0
   19.8570    0.3000  -15.8960 C   0  0  0  0  0
   21.3000    0.1560  -16.1130 N   0  0  0  0  0
   21.7760   -0.2480  -17.3030 C   0  0  0  0  0
   23.1260   -0.2870  -17.2460 N   0  0  0  0  0
   22.3160    0.3610  -15.3300 C   0  0  0  0  0
   23.4690    0.0870  -16.0150 C   0  0  0  0  0
   24.8130    0.2630  -15.3140 C   0  0  0  0  0
   24.7990    0.6980  -13.9660 N   0  0  0  0  0
   23.5850    0.9660  -13.2640 C   0  0  0  0  0
   23.6320    1.3870  -11.8840 N   0  0  0  0  0
   22.3030    0.8130  -13.9180 N   0  0  0  0  0
   25.8590    0.0580  -15.8590 O   0  0  0  0  0
   18.9340    4.6350  -17.9280 O   0  0  0  0  0
   19.8140    2.6100  -22.0840 O   0  0  0  0  0
   24.7880   -0.1574  -25.3008 H   0  0  0  0  0
   27.6249    1.3528  -22.2107 H   0  0  0  0  0
   26.7583    2.1779  -20.9109 H   0  0  0  0  0
   21.7244    2.9381  -20.3994 H   0  0  0  0  0
   20.8009    1.9201  -23.7991 H   0  0  0  0  0
   20.9314   -0.4578  -22.4315 H   0  0  0  0  0
   18.8964   -0.8715  -23.3097 H   0  0  0  0  0
   20.1401    0.5536  -20.2950 H   0  0  0  0  0
   17.8847    1.6264  -21.9792 H   0  0  0  0  0
   17.7408    1.9277  -19.4868 H   0  0  0  0  0
   17.9208    3.4495  -20.2636 H   0  0  0  0  0
   21.7689    2.9834  -17.5192 H   0  0  0  0  0
   19.8321    0.8860  -17.9129 H   0  0  0  0  0
   17.3907    0.5078  -17.9744 H   0  0  0  0  0
   16.2155    0.6963  -16.0207 H   0  0  0  0  0
   17.2248   -1.4261  -16.0960 H   0  0  0  0  0
   17.3268   -1.8986  -18.3855 H   0  0  0  0  0
   18.4682   -2.9115  -17.4928 H   0  0  0  0  0
   21.1284   -1.2316  -20.4859 H   0  0  0  0  0
   19.6578    0.8821  -14.9962 H   0  0  0  0  0
   21.1714   -0.5030  -18.1733 H   0  0  0  0  0
   24.5307    1.4922  -11.4132 H   0  0  0  0  0
   21.4292    1.0075  -13.4291 H   0  0  0  0  0
  4  1  4  0  0  0
  1  5  4  0  0  0
  3  2  1  0  0  0
  3  4  4  0  0  0
  3  7  4  0  0  0
  5  6  4  0  0  0
  6  7  4  0  0  0
  6 10  4  0  0  0
  7  8  4  0  0  0
  8  9  4  0  0  0
  9 10  4  0  0  0
 10 11  1  0  0  0
 11 12  1  0  0  0
 11 45  1  0  0  0
 12 13  1  0  0  0
 12 14  1  0  0  0
 14 15  1  0  0  0
 14 28  1  0  0  0
 15 16  1  0  0  0
 15 45  1  0  0  0
 16 17  1  0  0  0
 17 18  1  0  0  0
 18 19  1  0  0  0
 18 20  1  0  0  0
 18 44  2  0  0  0
 20 21  1  0  0  0
 21 22  1  0  0  0
 21 32  1  0  0  0
 22 23  1  0  0  0
 22 24  1  0  0  0
 24 25  1  0  0  0
 24 31  1  0  0  0
 25 26  1  0  0  0
 26 27  1  0  0  0
 27 28  1  0  0  0
 27 29  1  0  0  0
 27 30  2  0  0  0
 31 32  1  0  0  0
 32 33  1  0  0  0
 33 34  4  0  0  0
 33 36  4  0  0  0
 34 35  4  0  0  0
 35 37  4  0  0  0
 36 37  4  0  0  0
 36 42  1  0  0  0
 37 38  1  0  0  0
 38 39  1  0  0  0
 38 43  2  0  0  0
 39 40  4  0  0  0
 40 41  2  0  0  0
 40 42  1  0  0  0
  1 46  1  0  0  0
  2 47  1  0  0  0
  2 48  1  0  0  0
  9 49  1  0  0  0
 11 50  1  0  0  0
 12 51  1  0  0  0
 13 52  1  0  0  0
 14 53  1  0  0  0
 15 54  1  0  0  0
 16 55  1  0  0  0
 16 56  1  0  0  0
 19 57  1  0  0  0
 21 58  1  0  0  0
 22 59  1  0  0  0
 23 60  1  0  0  0
 24 61  1  0  0  0
 25 62  1  0  0  0
 25 63  1  0  0  0
 29 64  1  0  0  0
 32 65  1  0  0  0
 34 66  1  0  0  0
 41 67  1  0  0  0
 42 68  1  0  0  0
M  END
$$$$
