6ak5_ligand
  -I-interpret- 

 47 49  0  0  0  0  0  0  0  0999 V2000
  127.5290   85.5740   47.3690 P   0  0  0  0  0
  127.6200   85.5450   45.8630 O   0  0  0  0  0
  128.4050   84.6550   48.1440 O   0  0  0  0  0
  126.1030   85.5120   47.8660 O   0  0  0  0  0
  128.0440   87.0610   47.7000 O   0  0  0  0  0
  127.1070   88.3690   47.6740 P   0  0  0  0  0
  125.8170   88.1280   46.9200 O   0  0  0  0  0
  128.0010   89.5130   47.2780 O   0  0  0  0  0
  126.7940   88.5710   49.2320 O   0  0  0  0  0
  125.3850   88.4560   49.9930 P   0  0  0  0  0
  124.3800   87.6010   49.2300 O   0  0  0  0  0
  125.7370   88.0560   51.4040 O   0  0  0  0  0
  124.9140   89.9920   50.0610 O   0  0  0  0  0
  124.6960   90.7750   48.8840 C   0  0  0  0  0
  124.6530   92.2460   49.2610 C   0  0  0  0  0
  123.4790   92.4160   50.0520 O   0  0  0  0  0
  125.8300   92.7420   50.0940 C   0  0  0  0  0
  126.1960   94.0850   49.7330 O   0  0  0  0  0
  125.3080   92.7450   51.5070 C   0  0  0  0  0
  125.9490   93.7280   52.3190 O   0  0  0  0  0
  123.8400   93.0590   51.2720 C   0  0  0  0  0
  122.9630   92.5900   52.3660 N   0  0  0  0  0
  122.8860   91.3470   52.8920 C   0  0  0  0  0
  121.9580   91.3140   53.8870 N   0  0  0  0  0
  121.4300   92.5470   53.9860 C   0  0  0  0  0
  120.4080   93.2230   54.8180 C   0  0  0  0  0
  119.7930   92.5830   55.6950 O   0  0  0  0  0
  120.1630   94.5340   54.5980 N   0  0  0  0  0
  120.8150   95.2450   53.6490 C   0  0  0  0  0
  120.5330   96.5570   53.4750 N   0  0  0  0  0
  121.7690   94.6930   52.8530 N   0  0  0  0  0
  122.0990   93.3820   52.9790 C   0  0  0  0  0
  127.0048   86.1830   45.4940 H   0  0  0  0  0
  125.5594   86.1126   47.3509 H   0  0  0  0  0
  125.3668   87.3668   47.2935 H   0  0  0  0  0
  124.2507   87.9678   48.3523 H   0  0  0  0  0
  123.7501   90.4881   48.4247 H   0  0  0  0  0
  125.5067   90.6032   48.1759 H   0  0  0  0  0
  124.6783   92.8163   48.3324 H   0  0  0  0  0
  126.7123   92.1183   49.9503 H   0  0  0  0  0
  126.9375   94.3694   50.2724 H   0  0  0  0  0
  125.4850   91.8171   52.0509 H   0  0  0  0  0
  125.5863   93.6938   53.2072 H   0  0  0  0  0
  123.7073   94.1400   51.2290 H   0  0  0  0  0
  123.4814   90.4941   52.5662 H   0  0  0  0  0
  119.8295   97.0092   54.0589 H   0  0  0  0  0
  122.2407   95.2685   52.1554 H   0  0  0  0  0
  1  2  1  0  0  0
  1  3  2  0  0  0
  1  4  1  0  0  0
  1  5  1  0  0  0
  5  6  1  0  0  0
  6  7  1  0  0  0
  6  8  2  0  0  0
  6  9  1  0  0  0
  9 10  1  0  0  0
 10 11  1  0  0  0
 10 12  2  0  0  0
 10 13  1  0  0  0
 13 14  1  0  0  0
 14 15  1  0  0  0
 15 16  1  0  0  0
 15 17  1  0  0  0
 16 21  1  0  0  0
 17 18  1  0  0  0
 17 19  1  0  0  0
 19 20  1  0  0  0
 19 21  1  0  0  0
 21 22  1  0  0  0
 22 23  4  0  0  0
 22 32  4  0  0  0
 23 24  4  0  0  0
 24 25  4  0  0  0
 25 26  1  0  0  0
 25 32  4  0  0  0
 26 27  2  0  0  0
 26 28  1  0  0  0
 28 29  4  0  0  0
 29 30  2  0  0  0
 29 31  1  0  0  0
 31 32  1  0  0  0
  2 33  1  0  0  0
  4 34  1  0  0  0
  7 35  1  0  0  0
 11 36  1  0  0  0
 14 37  1  0  0  0
 14 38  1  0  0  0
 15 39  1  0  0  0
 17 40  1  0  0  0
 18 41  1  0  0  0
 19 42  1  0  0  0
 20 43  1  0  0  0
 21 44  1  0  0  0
 23 45  1  0  0  0
 30 46  1  0  0  0
 31 47  1  0  0  0
M  END
$$$$
