6apt_ligand
  -I-interpret- 

 48 49  0  0  0  0  0  0  0  0999 V2000
   29.9500    9.1880    3.3860 O   0  0  0  0  0
   28.8260    9.7640    4.2240 P   0  0  0  0  0
   29.0850    9.2560    5.6210 O   0  0  0  0  0
   27.4760    9.4110    3.6840 O   0  0  0  0  0
   29.0200   11.5870    4.4360 C   0  0  0  0  0
   28.5910   12.4180    3.2480 C   0  0  0  0  0
   28.8030   13.7460    3.6620 O   0  0  0  0  0
   29.3610   14.5920    2.6970 C   0  0  0  0  0
   28.4880   15.8390    2.5920 C   0  0  0  0  0
   27.8160   15.7960    1.3720 O   0  0  0  0  0
   28.7910   16.2510    0.4750 C   0  0  0  0  0
   28.1190   16.7200   -0.7930 C   0  0  0  0  0
   29.1430   18.0390   -1.5970 P   0  0  0  0  0
   30.5350   17.5320   -1.9650 O   0  0  0  0  0
   29.2940   19.2130   -0.6580 O   0  0  0  0  0
   28.3610   18.3690   -2.8400 O   0  0  0  0  0
   27.5280   15.9540    3.7490 C   0  0  0  0  0
   26.4740   16.9530    3.6780 N   0  0  0  0  0
   25.4060   16.7190    4.3920 C   0  0  0  0  0
   25.1500   15.5720    5.2440 N   0  0  0  0  0
   23.8970   15.5390    5.9510 C   0  0  0  0  0
   23.5430   14.4920    6.8250 N   0  0  0  0  0
   22.9460   16.6010    5.8010 N   0  0  0  0  0
   23.1980   17.7210    4.9540 C   0  0  0  0  0
   22.3720   18.5820    4.8890 O   0  0  0  0  0
   24.5210   17.7720    4.2240 C   0  0  0  0  0
   25.1000   18.6160    3.3590 N   0  0  0  0  0
   26.3010   18.1080    3.0430 C   0  0  0  0  0
   30.7939    9.4391    3.7686 H   0  0  0  0  0
   29.9655    9.5197    5.8981 H   0  0  0  0  0
   30.0834   11.7751    4.5839 H   0  0  0  0  0
   28.3804   11.8765    5.2698 H   0  0  0  0  0
   27.5531   12.2341    2.9704 H   0  0  0  0  0
   29.1554   12.1722    2.3485 H   0  0  0  0  0
   29.4046   14.0836    1.7338 H   0  0  0  0  0
   30.3756   14.8686    2.9835 H   0  0  0  0  0
   29.1175   16.7277    2.6373 H   0  0  0  0  0
   29.4824   15.4406    0.2443 H   0  0  0  0  0
   29.3434   17.0769    0.9232 H   0  0  0  0  0
   27.1362   17.1246   -0.5511 H   0  0  0  0  0
   28.0144   15.8782   -1.4775 H   0  0  0  0  0
   31.0215   17.3258   -1.1635 H   0  0  0  0  0
   29.7990   18.9423    0.1123 H   0  0  0  0  0
   28.1417   16.2468    4.6009 H   0  0  0  0  0
   27.0105   14.9954    3.7867 H   0  0  0  0  0
   25.8315   14.8189    5.3379 H   0  0  0  0  0
   22.6476   14.5158    7.3130 H   0  0  0  0  0
   27.0229   18.5706    2.3700 H   0  0  0  0  0
  1  2  1  0  0  0
  2  3  1  0  0  0
  2  4  2  0  0  0
  2  5  1  0  0  0
  5  6  1  0  0  0
  6  7  1  0  0  0
  7  8  1  0  0  0
  8  9  1  0  0  0
  9 10  1  0  0  0
  9 17  1  0  0  0
 10 11  1  0  0  0
 11 12  1  0  0  0
 12 13  1  0  0  0
 13 14  1  0  0  0
 13 15  1  0  0  0
 13 16  2  0  0  0
 17 18  1  0  0  0
 18 19  4  0  0  0
 18 28  4  0  0  0
 19 20  1  0  0  0
 19 26  4  0  0  0
 20 21  1  0  0  0
 21 22  2  0  0  0
 21 23  4  0  0  0
 23 24  1  0  0  0
 24 25  2  0  0  0
 24 26  1  0  0  0
 26 27  4  0  0  0
 27 28  4  0  0  0
  1 29  1  0  0  0
  3 30  1  0  0  0
  5 31  1  0  0  0
  5 32  1  0  0  0
  6 33  1  0  0  0
  6 34  1  0  0  0
  8 35  1  0  0  0
  8 36  1  0  0  0
  9 37  1  0  0  0
 11 38  1  0  0  0
 11 39  1  0  0  0
 12 40  1  0  0  0
 12 41  1  0  0  0
 14 42  1  0  0  0
 15 43  1  0  0  0
 17 44  1  0  0  0
 17 45  1  0  0  0
 20 46  1  0  0  0
 22 47  1  0  0  0
 28 48  1  0  0  0
M  END
$$$$
