6apu_ligand
  -I-interpret- 

 42 43  0  0  0  0  0  0  0  0999 V2000
   10.5350  141.0750   39.7300 N   0  0  0  0  0
   10.2560  139.9950   39.6760 C   0  0  0  0  0
    9.7730  138.5650   39.8330 C   0  0  0  0  0
    8.2640  138.5130   39.8000 C   0  0  0  0  0
    7.9650  137.4770   40.7800 N   0  3  0  0  0
    6.9020  136.6740   40.1480 C   0  0  0  0  0
    6.8170  135.3490   40.8730 C   0  0  0  0  0
    5.4480  134.3390   40.1710 P   0  0  0  0  0
    5.8770  133.8360   38.7890 O   0  0  0  0  0
    5.0800  133.1600   41.0580 O   0  0  0  0  0
    4.2280  135.2230   39.9650 O   0  0  0  0  0
    7.5070  138.1300   41.9520 C   0  0  0  0  0
    6.7140  139.3900   41.6660 C   0  0  0  0  0
    5.9240  139.6400   42.8720 N   0  0  0  0  0
    6.3290  140.4200   43.8300 C   0  0  0  0  0
    7.5750  141.1440   43.9510 N   0  0  0  0  0
    7.7290  141.9350   45.1250 C   0  0  0  0  0
    8.8800  142.7340   45.3000 N   0  0  0  0  0
    6.7290  141.9890   46.1500 N   0  0  0  0  0
    5.5420  141.2240   46.0250 C   0  0  0  0  0
    4.7480  141.2920   46.9090 O   0  0  0  0  0
    5.3770  140.3980   44.8220 C   0  0  0  0  0
    4.3740  139.6250   44.4110 N   0  0  0  0  0
    4.7590  139.1630   43.2370 C   0  0  0  0  0
   10.1210  138.1755   40.7897 H   0  0  0  0  0
   10.1671  137.9649   39.0129 H   0  0  0  0  0
    7.8649  138.2933   38.8098 H   0  0  0  0  0
    7.7976  139.4702   40.0333 H   0  0  0  0  0
    8.7553  136.8862   41.0386 H   0  0  0  0  0
    7.1311  136.5111   39.0949 H   0  0  0  0  0
    5.9483  137.1980   40.2115 H   0  0  0  0  0
    6.6254  135.5292   41.9308 H   0  0  0  0  0
    7.7581  134.8123   40.7534 H   0  0  0  0  0
    6.1078  134.5850   38.2346 H   0  0  0  0  0
    4.4636  135.9661   39.4048 H   0  0  0  0  0
    8.3835  138.4173   42.5327 H   0  0  0  0  0
    6.8485  137.4388   42.4780 H   0  0  0  0  0
    6.0766  139.2694   40.7901 H   0  0  0  0  0
    7.3697  140.2303   41.4379 H   0  0  0  0  0
    8.3014  141.0911   43.2369 H   0  0  0  0  0
    8.9738  143.3182   46.1309 H   0  0  0  0  0
    4.1748  138.4640   42.6385 H   0  0  0  0  0
  1  2  3  0  0  0
  2  3  1  0  0  0
  3  4  1  0  0  0
  4  5  1  0  0  0
  5  6  1  0  0  0
  5 12  1  0  0  0
  6  7  1  0  0  0
  7  8  1  0  0  0
  8  9  1  0  0  0
  8 10  2  0  0  0
  8 11  1  0  0  0
 12 13  1  0  0  0
 13 14  1  0  0  0
 14 15  4  0  0  0
 14 24  4  0  0  0
 15 16  1  0  0  0
 15 22  4  0  0  0
 16 17  1  0  0  0
 17 18  2  0  0  0
 17 19  4  0  0  0
 19 20  1  0  0  0
 20 21  2  0  0  0
 20 22  1  0  0  0
 22 23  4  0  0  0
 23 24  4  0  0  0
  3 25  1  0  0  0
  3 26  1  0  0  0
  4 27  1  0  0  0
  4 28  1  0  0  0
  5 29  1  0  0  0
  6 30  1  0  0  0
  6 31  1  0  0  0
  7 32  1  0  0  0
  7 33  1  0  0  0
  9 34  1  0  0  0
 11 35  1  0  0  0
 12 36  1  0  0  0
 12 37  1  0  0  0
 13 38  1  0  0  0
 13 39  1  0  0  0
 16 40  1  0  0  0
 18 41  1  0  0  0
 24 42  1  0  0  0
M  END
$$$$
