6apv_ligand
  -I-interpret- 

 50 51  0  0  0  0  0  0  0  0999 V2000
   27.0880  104.1690  -80.3670 O   0  0  0  0  0
   28.1300  104.5170  -79.3260 P   0  0  0  0  0
   27.4620  105.0560  -78.0710 O   0  0  0  0  0
   29.0040  103.2900  -79.0380 O   0  0  0  0  0
   29.2340  105.8510  -80.0280 C   0  0  0  0  0
   28.5520  107.0540  -79.8070 O   0  0  0  0  0
   27.8190  107.4620  -80.9240 C   0  0  0  0  0
   28.6500  108.5710  -81.5550 C   0  0  0  0  0
   27.8930  109.7990  -81.6010 N   0  3  0  0  0
   28.6510  110.9240  -82.1290 C   0  0  0  0  0
   28.0720  111.0960  -83.5230 C   0  0  0  0  0
   28.9790  112.4440  -84.3880 P   0  0  0  0  0
   29.0010  113.6110  -83.4260 O   0  0  0  0  0
   30.3840  111.9580  -84.7240 O   0  0  0  0  0
   28.2490  112.8050  -85.6680 O   0  0  0  0  0
   26.9060  110.0210  -80.5490 C   0  0  0  0  0
   27.0930  111.2120  -79.6270 C   0  0  0  0  0
   25.8200  111.9040  -79.4290 N   0  0  0  0  0
   24.7640  111.4580  -78.7330 C   0  0  0  0  0
   24.5210  110.2220  -77.9850 N   0  0  0  0  0
   23.2410  110.0220  -77.3160 C   0  0  0  0  0
   22.9820  108.8160  -76.5880 N   0  0  0  0  0
   22.2150  111.0100  -77.3800 N   0  0  0  0  0
   22.4430  112.2210  -78.0930 C   0  0  0  0  0
   21.5750  113.0290  -78.1370 O   0  0  0  0  0
   23.7810  112.4290  -78.7990 C   0  0  0  0  0
   24.2790  113.4270  -79.5370 N   0  0  0  0  0
   25.5050  113.1020  -79.9040 C   0  0  0  0  0
   28.1337  105.2723  -77.4201 H   0  0  0  0  0
   29.6630  103.5158  -78.3774 H   0  0  0  0  0
   29.4296  105.6912  -81.0883 H   0  0  0  0  0
   30.2132  105.8527  -79.5492 H   0  0  0  0  0
   26.8229  107.8091  -80.6495 H   0  0  0  0  0
   27.6483  106.6393  -81.6184 H   0  0  0  0  0
   28.9192  108.2804  -82.5705 H   0  0  0  0  0
   29.5473  108.7281  -80.9565 H   0  0  0  0  0
   27.1986  109.6595  -82.3349 H   0  0  0  0  0
   29.7262  110.7452  -82.1355 H   0  0  0  0  0
   28.5588  111.8218  -81.5177 H   0  0  0  0  0
   27.0147  111.3513  -83.4525 H   0  0  0  0  0
   28.1768  110.1658  -84.0814 H   0  0  0  0  0
   30.3284  111.2194  -85.3347 H   0  0  0  0  0
   28.2496  112.0489  -86.2595 H   0  0  0  0  0
   26.9731  109.1453  -79.9034 H   0  0  0  0  0
   25.9674  110.2071  -81.0711 H   0  0  0  0  0
   27.8073  111.9018  -80.0765 H   0  0  0  0  0
   27.4618  110.8618  -78.6629 H   0  0  0  0  0
   25.2441  109.5045  -77.9324 H   0  0  0  0  0
   22.0804  108.6799  -76.1308 H   0  0  0  0  0
   26.1623  113.7267  -80.5089 H   0  0  0  0  0
  1  2  2  0  0  0
  2  3  1  0  0  0
  2  4  1  0  0  0
  2  5  1  0  0  0
  5  6  1  0  0  0
  6  7  1  0  0  0
  7  8  1  0  0  0
  8  9  1  0  0  0
  9 10  1  0  0  0
  9 16  1  0  0  0
 10 11  1  0  0  0
 11 12  1  0  0  0
 12 13  2  0  0  0
 12 14  1  0  0  0
 12 15  1  0  0  0
 16 17  1  0  0  0
 17 18  1  0  0  0
 18 19  4  0  0  0
 18 28  4  0  0  0
 19 20  1  0  0  0
 19 26  4  0  0  0
 20 21  1  0  0  0
 21 22  2  0  0  0
 21 23  4  0  0  0
 23 24  1  0  0  0
 24 25  2  0  0  0
 24 26  1  0  0  0
 26 27  4  0  0  0
 27 28  4  0  0  0
  3 29  1  0  0  0
  4 30  1  0  0  0
  5 31  1  0  0  0
  5 32  1  0  0  0
  7 33  1  0  0  0
  7 34  1  0  0  0
  8 35  1  0  0  0
  8 36  1  0  0  0
  9 37  1  0  0  0
 10 38  1  0  0  0
 10 39  1  0  0  0
 11 40  1  0  0  0
 11 41  1  0  0  0
 14 42  1  0  0  0
 15 43  1  0  0  0
 16 44  1  0  0  0
 16 45  1  0  0  0
 17 46  1  0  0  0
 17 47  1  0  0  0
 20 48  1  0  0  0
 22 49  1  0  0  0
 28 50  1  0  0  0
M  END
$$$$
