6ar9_ligand
  -I-interpret- 

 50 51  0  0  0  0  0  0  0  0999 V2000
   -7.6630    5.9160  -54.8310 O   0  0  0  0  0
   -8.1440    4.5920  -55.3750 P   0  0  0  0  0
   -9.5320    4.7630  -55.9480 O   0  0  0  0  0
   -7.1910    4.1170  -56.4480 O   0  0  0  0  0
   -8.2010    3.3410  -54.0020 C   0  0  0  0  0
   -9.0090    3.8890  -53.0010 O   0  0  0  0  0
   -8.4160    3.9080  -51.7320 C   0  0  0  0  0
   -9.5420    4.0590  -50.7110 C   0  0  0  0  0
   -9.7100    2.8420  -49.9300 N   0  3  0  0  0
  -10.3860    3.1820  -48.6840 C   0  0  0  0  0
  -10.9580    1.9590  -47.9650 C   0  0  0  0  0
   -9.8240    1.2790  -46.6510 P   0  0  0  0  0
   -9.0920    0.0850  -47.2130 O   0  0  0  0  0
   -8.8220    2.3270  -46.2220 O   0  0  0  0  0
  -10.6390    0.8470  -45.4540 O   0  0  0  0  0
  -10.4460    1.8200  -50.6710 C   0  0  0  0  0
  -11.5250    2.3800  -51.6030 C   0  0  0  0  0
  -11.9650    1.3530  -52.5330 N   0  0  0  0  0
  -12.6090    0.2360  -52.1880 C   0  0  0  0  0
  -13.0550   -0.2930  -50.8740 N   0  0  0  0  0
  -13.7530   -1.5720  -50.8000 C   0  0  0  0  0
  -14.1820   -2.0740  -49.5100 N   0  0  0  0  0
  -14.0150   -2.3270  -52.0090 N   0  0  0  0  0
  -13.5840   -1.8180  -53.2810 C   0  0  0  0  0
  -13.7960   -2.4380  -54.2700 O   0  0  0  0  0
  -12.8510   -0.4760  -53.3510 C   0  0  0  0  0
  -12.3400    0.2460  -54.3560 N   0  0  0  0  0
  -11.8060    1.3490  -53.8480 C   0  0  0  0  0
   -9.8398    3.9223  -56.2945 H   0  0  0  0  0
   -7.4954    3.2752  -56.7950 H   0  0  0  0  0
   -7.2006    3.1291  -53.6245 H   0  0  0  0  0
   -8.6049    2.3919  -54.3545 H   0  0  0  0  0
   -7.7097    4.7341  -51.6502 H   0  0  0  0  0
   -7.8574    2.9889  -51.5550 H   0  0  0  0  0
  -10.4708    4.2615  -51.2443 H   0  0  0  0  0
   -9.2909    4.8754  -50.0339 H   0  0  0  0  0
   -8.7931    2.4440  -49.7268 H   0  0  0  0  0
  -11.2167    3.8451  -48.9258 H   0  0  0  0  0
   -9.6532    3.6446  -48.0229 H   0  0  0  0  0
  -11.1046    1.1773  -48.7104 H   0  0  0  0  0
  -11.8820    2.2668  -47.4756 H   0  0  0  0  0
   -9.2881    3.0864  -45.8646 H   0  0  0  0  0
  -11.1054    1.6055  -45.0952 H   0  0  0  0  0
  -10.9484    1.1888  -49.9380 H   0  0  0  0  0
   -9.7248    1.2904  -51.2935 H   0  0  0  0  0
  -11.1123    3.2179  -52.1649 H   0  0  0  0  0
  -12.3756    2.7107  -51.0070 H   0  0  0  0  0
  -12.8732    0.2383  -50.0225 H   0  0  0  0  0
  -14.6729   -2.9659  -49.4474 H   0  0  0  0  0
  -11.3123    2.1316  -54.4241 H   0  0  0  0  0
  1  2  2  0  0  0
  2  3  1  0  0  0
  2  4  1  0  0  0
  2  5  1  0  0  0
  5  6  1  0  0  0
  6  7  1  0  0  0
  7  8  1  0  0  0
  8  9  1  0  0  0
  9 10  1  0  0  0
  9 16  1  0  0  0
 10 11  1  0  0  0
 11 12  1  0  0  0
 12 13  2  0  0  0
 12 14  1  0  0  0
 12 15  1  0  0  0
 16 17  1  0  0  0
 17 18  1  0  0  0
 18 19  4  0  0  0
 18 28  4  0  0  0
 19 20  1  0  0  0
 19 26  4  0  0  0
 20 21  1  0  0  0
 21 22  2  0  0  0
 21 23  4  0  0  0
 23 24  1  0  0  0
 24 25  2  0  0  0
 24 26  1  0  0  0
 26 27  4  0  0  0
 27 28  4  0  0  0
  3 29  1  0  0  0
  4 30  1  0  0  0
  5 31  1  0  0  0
  5 32  1  0  0  0
  7 33  1  0  0  0
  7 34  1  0  0  0
  8 35  1  0  0  0
  8 36  1  0  0  0
  9 37  1  0  0  0
 10 38  1  0  0  0
 10 39  1  0  0  0
 11 40  1  0  0  0
 11 41  1  0  0  0
 14 42  1  0  0  0
 15 43  1  0  0  0
 16 44  1  0  0  0
 16 45  1  0  0  0
 17 46  1  0  0  0
 17 47  1  0  0  0
 20 48  1  0  0  0
 22 49  1  0  0  0
 28 50  1  0  0  0
M  END
$$$$
