6d9s_ligand
  -I-interpret- 

 52 54  0  0  0  0  0  0  0  0999 V2000
   58.7080  -17.8990   13.2620 P   0  0  0  0  0
   58.2850  -17.5720   11.8510 O   0  0  0  0  0
   59.5940  -19.1140   13.3470 O   0  0  0  0  0
   57.6260  -17.8400   14.3110 O   0  0  0  0  0
   59.7020  -16.7080   13.6740 O   0  0  0  0  0
   60.8830  -16.2570   12.6880 P   0  0  0  0  0
   60.4840  -16.4900   11.2530 O   0  0  0  0  0
   61.3830  -14.9100   13.1500 O   0  0  0  0  0
   61.9720  -17.3590   13.1000 O   0  0  0  0  0
   62.5680  -18.2000   12.1220 C   0  0  0  0  0
   63.3590  -19.2940   12.8260 C   0  0  0  0  0
   63.9340  -18.7710   14.0300 O   0  0  0  0  0
   62.4740  -20.4560   13.2590 C   0  0  0  0  0
   63.0780  -21.7470   13.1950 O   0  0  0  0  0
   62.1610  -20.1680   14.7320 C   0  0  0  0  0
   61.8820  -21.3260   15.4960 O   0  0  0  0  0
   63.4620  -19.4970   15.1760 C   0  0  0  0  0
   63.3270  -18.5960   16.3310 N   0  0  0  0  0
   62.3440  -17.7210   16.5980 C   0  0  0  0  0
   62.5890  -17.0810   17.7710 N   0  0  0  0  0
   63.7470  -17.5520   18.2690 C   0  0  0  0  0
   64.5880  -17.3170   19.4660 C   0  0  0  0  0
   64.2640  -16.4850   20.3420 O   0  0  0  0  0
   65.7180  -18.0280   19.5870 N   0  0  0  0  0
   66.0970  -18.9360   18.6620 C   0  0  0  0  0
   67.2480  -19.6280   18.8330 N   0  0  0  0  0
   65.3800  -19.2010   17.5480 N   0  0  0  0  0
   64.2210  -18.5540   17.3110 C   0  0  0  0  0
   64.4830  -22.0880   12.4890 P   0  0  0  0  0
   65.5810  -21.5230   13.3510 O   0  0  0  0  0
   64.3980  -21.6320   11.0540 O   0  0  0  0  0
   64.4870  -23.7040   12.4930 O   0  0  0  0  0
   65.2030  -24.6700   13.5630 P   0  0  0  0  0
   66.3180  -23.8560   14.1520 O   0  0  0  0  0
   64.0960  -25.0040   14.5140 O   0  0  0  0  0
   65.6380  -25.8650   12.7630 O   0  0  0  0  0
   57.7248  -16.7924   11.8586 H   0  0  0  0  0
   57.1077  -17.0411   14.1899 H   0  0  0  0  0
   61.5874  -14.9500   14.0871 H   0  0  0  0  0
   63.2341  -17.6136   11.4892 H   0  0  0  0  0
   61.7928  -18.6484   11.5006 H   0  0  0  0  0
   64.1100  -19.6385   12.1150 H   0  0  0  0  0
   61.6193  -20.5048   12.5843 H   0  0  0  0  0
   61.2593  -19.5712   14.8693 H   0  0  0  0  0
   61.6961  -21.0724   16.4030 H   0  0  0  0  0
   64.1557  -20.2649   15.5185 H   0  0  0  0  0
   61.4740  -17.5489   15.9643 H   0  0  0  0  0
   67.8248  -19.4625   19.6578 H   0  0  0  0  0
   65.7178  -19.8954   16.8816 H   0  0  0  0  0
   63.6584  -22.0677   10.6242 H   0  0  0  0  0
   66.9808  -23.6883   13.4781 H   0  0  0  0  0
   66.3465  -25.6095   12.1677 H   0  0  0  0  0
  1  2  1  0  0  0
  1  3  2  0  0  0
  1  4  1  0  0  0
  1  5  1  0  0  0
  5  6  1  0  0  0
  6  7  2  0  0  0
  6  8  1  0  0  0
  6  9  1  0  0  0
  9 10  1  0  0  0
 10 11  1  0  0  0
 11 12  1  0  0  0
 11 13  1  0  0  0
 12 17  1  0  0  0
 13 14  1  0  0  0
 13 15  1  0  0  0
 14 29  1  0  0  0
 15 16  1  0  0  0
 15 17  1  0  0  0
 17 18  1  0  0  0
 18 19  4  0  0  0
 18 28  4  0  0  0
 19 20  4  0  0  0
 20 21  4  0  0  0
 21 22  1  0  0  0
 21 28  4  0  0  0
 22 23  2  0  0  0
 22 24  1  0  0  0
 24 25  4  0  0  0
 25 26  2  0  0  0
 25 27  1  0  0  0
 27 28  1  0  0  0
 29 30  2  0  0  0
 29 31  1  0  0  0
 29 32  1  0  0  0
 32 33  1  0  0  0
 33 34  1  0  0  0
 33 35  2  0  0  0
 33 36  1  0  0  0
  2 37  1  0  0  0
  4 38  1  0  0  0
  8 39  1  0  0  0
 10 40  1  0  0  0
 10 41  1  0  0  0
 11 42  1  0  0  0
 13 43  1  0  0  0
 15 44  1  0  0  0
 16 45  1  0  0  0
 17 46  1  0  0  0
 19 47  1  0  0  0
 26 48  1  0  0  0
 27 49  1  0  0  0
 31 50  1  0  0  0
 34 51  1  0  0  0
 36 52  1  0  0  0
M  END
$$$$
