6dat_ligand
  -I-interpret- 

262269  0  0  0  0  0  0  0  0999 V2000
  -12.8200  -60.7460    4.6500 N   0  3  0  0  0
  -11.5280  -60.0870    4.4340 C   0  0  0  0  0
  -10.9910  -59.4190    5.6940 C   0  0  0  0  0
  -11.7650  -59.1190    6.6020 O   0  0  0  0  0
  -11.8500  -59.0410    3.3710 C   0  0  0  0  0
  -13.2640  -58.6630    3.6630 C   0  0  0  0  0
  -13.9430  -59.9120    4.1840 C   0  0  0  0  0
   -9.6850  -59.1730    5.7360 N   0  0  0  0  0
   -9.0270  -58.5630    6.9150 C   0  0  0  0  0
   -7.6560  -59.2450    7.2320 C   0  0  0  0  0
   -6.6620  -58.6530    6.4990 O   0  0  0  0  0
   -8.7950  -57.0510    6.7210 C   0  0  0  0  0
   -8.7440  -56.5530    5.5600 O   0  0  0  0  0
   -5.6200  -59.7320    5.4780 P   0  0  0  0  0
   -5.4850  -58.9080    4.2130 O   0  0  0  0  0
   -6.4270  -61.0110    5.3220 O   0  0  0  0  0
   -4.3760  -59.8570    6.3330 O   0  0  0  0  0
   -8.6550  -56.3320    7.8310 N   0  0  0  0  0
   -8.4390  -54.9090    7.7970 C   0  0  0  0  0
   -9.6940  -54.2040    8.3400 C   0  0  0  0  0
  -10.9090  -54.5360    7.5700 C   0  0  0  0  0
  -11.7880  -55.5370    7.9720 C   0  0  0  0  0
  -11.5400  -56.2390    9.0930 F   0  0  0  0  0
  -11.2340  -53.8570    6.3990 C   0  0  0  0  0
  -10.4450  -52.8720    5.9260 F   0  0  0  0  0
  -12.9320  -55.8470    7.2430 C   0  0  0  0  0
  -13.7670  -56.8250    7.6570 F   0  0  0  0  0
  -12.3650  -54.1560    5.6720 C   0  0  0  0  0
  -12.6390  -53.4660    4.5440 F   0  0  0  0  0
  -13.2130  -55.1500    6.0940 C   0  0  0  0  0
  -14.3230  -55.4380    5.3740 F   0  0  0  0  0
   -7.2110  -54.3920    8.5940 C   0  0  0  0  0
   -7.4060  -53.6580    9.5870 O   0  0  0  0  0
   -6.0060  -54.7650    8.1740 N   0  0  0  0  0
   -4.7940  -54.3170    8.8490 C   0  0  0  0  0
   -4.8440  -52.8190    9.1260 C   0  0  0  0  0
   -5.5780  -52.0720    8.4780 O   0  0  0  0  0
   -3.5500  -54.6550    8.0200 C   0  0  0  0  0
   -3.0810  -56.0830    8.2300 C   0  0  0  0  0
   -3.4890  -56.9740    7.4510 O   0  0  0  0  0
   -2.3100  -56.3110    9.1870 O   0  0  0  0  0
   -4.0750  -52.4020   10.1210 N   0  0  0  0  0
   -3.8930  -50.9960   10.4650 C   0  0  0  0  0
   -2.7080  -50.8420   11.4550 C   0  0  0  0  0
   -1.7060  -51.6870   11.0700 O   0  0  0  0  0
   -3.6260  -50.1270    9.2170 C   0  0  0  0  0
   -2.9480  -50.5810    8.2490 O   0  0  0  0  0
   -0.1320  -51.4990   11.8900 P   0  0  0  0  0
    0.4450  -50.2980   11.1690 O   0  0  0  0  0
    0.5750  -52.8140   11.6030 O   0  0  0  0  0
   -0.5530  -51.2860   13.3280 O   0  0  0  0  0
   -4.1620  -48.9120    9.2290 N   0  0  0  0  0
   -3.8140  -47.9070    8.2630 C   0  0  0  0  0
   -5.0950  -47.3740    7.6030 C   0  0  0  0  0
   -5.8590  -48.4740    6.9870 C   0  0  0  0  0
   -6.8690  -49.1390    7.6670 C   0  0  0  0  0
   -7.1840  -48.7720    8.9180 F   0  0  0  0  0
   -5.5880  -48.9110    5.7000 C   0  0  0  0  0
   -4.6210  -48.3240    4.9750 F   0  0  0  0  0
   -7.5840  -50.1810    7.0930 C   0  0  0  0  0
   -8.5660  -50.8000    7.7870 F   0  0  0  0  0
   -6.2890  -49.9460    5.1120 C   0  0  0  0  0
   -5.9890  -50.3330    3.8480 F   0  0  0  0  0
   -7.2880  -50.5810    5.8130 C   0  0  0  0  0
   -7.9790  -51.5970    5.2440 F   0  0  0  0  0
   -3.0070  -46.7380    8.8970 C   0  0  0  0  0
   -3.5540  -45.6270    9.0870 O   0  0  0  0  0
   -1.7500  -47.0110    9.2240 N   0  0  0  0  0
   -0.9430  -46.0960   10.0120 C   0  0  0  0  0
    0.3820  -45.8350    9.3130 C   0  0  0  0  0
    1.2130  -46.7360    9.1800 O   0  0  0  0  0
   -0.7140  -46.6810   11.4100 C   0  0  0  0  0
    0.0330  -45.7400   12.3300 C   0  0  0  0  0
    0.0510  -44.5190   12.0670 O   0  0  0  0  0
    0.6090  -46.2320   13.3200 O   0  0  0  0  0
    0.5640  -44.6030    8.8480 N   0  0  0  0  0
    1.7940  -44.2150    8.1990 C   0  0  0  0  0
    1.6490  -44.3920    6.6830 C   0  0  0  0  0
    1.2260  -45.7460    6.3080 C   0  0  0  0  0
   -0.1000  -46.0430    6.0190 C   0  0  0  0  0
   -1.0400  -45.0810    6.0770 F   0  0  0  0  0
    2.1350  -46.7900    6.2270 C   0  0  0  0  0
    3.4410  -46.5900    6.4990 F   0  0  0  0  0
   -0.5040  -47.3150    5.6630 C   0  0  0  0  0
   -1.8030  -47.5610    5.3930 F   0  0  0  0  0
    1.7450  -48.0650    5.8720 C   0  0  0  0  0
    2.6660  -49.0540    5.8090 F   0  0  0  0  0
    0.4230  -48.3240    5.5880 C   0  0  0  0  0
    0.0350  -49.5730    5.2420 F   0  0  0  0  0
    2.2670  -42.7570    8.4570 C   0  0  0  0  0
    1.4440  -41.9100    8.8700 O   0  0  0  0  0
    3.5430  -42.4910    8.2040 N   0  0  0  0  0
    4.1040  -41.1560    8.3630 C   0  0  0  0  0
    3.2680  -40.0990    7.6290 C   0  0  0  0  0
    3.0410  -39.0070    8.1530 O   0  0  0  0  0
    5.5550  -41.1480    7.8640 C   0  0  0  0  0
    6.0400  -39.8260    7.2990 C   0  0  0  0  0
    7.5030  -39.8740    6.9040 C   0  0  0  0  0
    8.3320  -40.3100    7.7300 O   0  0  0  0  0
    7.8220  -39.4840    5.7590 O   0  0  0  0  0
    2.8030  -40.4280    6.4260 N   0  0  0  0  0
    2.0460  -39.4760    5.6110 C   0  0  0  0  0
    0.5440  -39.5870    5.8640 C   0  0  0  0  0
   -0.2440  -38.7970    5.3420 O   0  0  0  0  0
    2.3360  -39.6900    4.1250 C   0  0  0  0  0
    1.8840  -41.0480    3.6340 C   0  0  0  0  0
    2.2830  -42.0650    4.2380 O   0  0  0  0  0
    1.1200  -41.1030    2.6490 O   0  0  0  0  0
    0.1590  -40.5770    6.6620 N   0  0  0  0  0
   -1.2180  -40.7640    7.0570 C   0  0  0  0  0
   -1.9540  -41.5610    5.9460 C   0  0  0  0  0
   -3.4280  -41.5260    6.0880 C   0  0  0  0  0
   -4.1350  -40.3310    6.0340 C   0  0  0  0  0
   -3.4840  -39.1720    5.8490 F   0  0  0  0  0
   -4.1810  -42.6820    6.2800 C   0  0  0  0  0
   -3.5890  -43.8890    6.3430 F   0  0  0  0  0
   -5.5130  -40.2800    6.1670 C   0  0  0  0  0
   -6.1540  -39.0910    6.1120 F   0  0  0  0  0
   -5.5570  -42.6470    6.4150 C   0  0  0  0  0
   -6.2550  -43.7920    6.5990 F   0  0  0  0  0
   -6.2200  -41.4460    6.3580 C   0  0  0  0  0
   -7.5680  -41.4200    6.4890 F   0  0  0  0  0
   -1.3770  -41.4920    8.4470 C   0  0  0  0  0
   -1.8330  -42.6570    8.4840 O   0  0  0  0  0
   -0.9990  -40.8100    9.5400 N   0  0  0  0  0
   -0.9600  -41.4110   10.8770 C   0  0  0  0  0
   -2.3420  -41.7250   11.4280 C   0  0  0  0  0
   -3.2630  -40.9100   11.3170 O   0  0  0  0  0
   -0.2690  -40.3370   11.7180 C   0  0  0  0  0
   -0.6160  -39.0630   11.0400 C   0  0  0  0  0
   -0.6510  -39.3780    9.5760 C   0  0  0  0  0
   -2.4800  -42.9130   12.0060 N   0  0  0  0  0
   -3.7170  -43.2970   12.6610 C   0  0  0  0  0
   -3.8180  -42.6210   14.0210 C   0  0  0  0  0
   -2.8180  -42.4210   14.7150 O   0  0  0  0  0
   -3.7920  -44.8160   12.8270 C   0  0  0  0  0
   -5.0410  -42.2550   14.3880 N   0  0  0  0  0
   -5.3210  -41.7180   15.7090 C   0  0  0  0  0
   -5.6630  -42.8490   16.6740 C   0  0  0  0  0
   -6.0130  -43.9610   16.2710 O   0  0  0  0  0
   -6.4690  -40.7070   15.6530 C   0  0  0  0  0
   -5.5470  -42.5490   17.9650 N   0  0  0  0  0
   -5.8160  -43.5320   19.0070 C   0  0  0  0  0
   -6.4970  -42.8710   20.2010 C   0  0  0  0  0
   -7.6320  -43.2160   20.5440 O   0  0  0  0  0
   -4.5140  -44.2180   19.4330 C   0  0  0  0  0
   -4.5890  -45.2710   20.5420 C   0  0  0  0  0
   -5.5810  -46.3630   20.2020 C   0  0  0  0  0
   -3.2100  -45.8710   20.7910 C   0  0  0  0  0
   -5.8210  -41.9120   20.8260 N   0  0  0  0  0
   -6.3540  -41.2470   22.0090 C   0  0  0  0  0
   -7.0020  -39.9070   21.6590 C   0  0  0  0  0
   -6.6090  -39.2490   20.6980 O   0  0  0  0  0
   -5.2430  -41.0350   23.0370 C   0  0  0  0  0
   -4.3950  -42.2510   23.2560 C   0  0  0  0  0
   -3.0890  -42.4130   22.8980 C   0  0  0  0  0
   -4.7960  -43.4780   23.8790 C   0  0  0  0  0
   -2.6490  -43.6640   23.2630 N   0  0  0  0  0
   -3.6790  -44.3370   23.8670 C   0  0  0  0  0
   -5.9900  -43.9320   24.4440 C   0  0  0  0  0
   -3.7230  -45.6240   24.3990 C   0  0  0  0  0
   -6.0310  -45.2100   24.9710 C   0  0  0  0  0
   -4.9050  -46.0410   24.9450 C   0  0  0  0  0
   -7.9940  -39.5060   22.4480 N   0  0  0  0  0
  -12.9343  -60.9086    5.6505 H   0  0  0  0  0
  -12.8275  -61.6188    4.1222 H   0  0  0  0  0
  -10.7518  -60.7947    4.1429 H   0  0  0  0  0
  -11.7228  -59.4244    2.3586 H   0  0  0  0  0
  -11.1746  -58.1864    3.4107 H   0  0  0  0  0
  -13.7622  -58.2923    2.7672 H   0  0  0  0  0
  -13.3097  -57.8585    4.3970 H   0  0  0  0  0
  -14.6607  -59.6977    4.9759 H   0  0  0  0  0
  -14.5443  -60.4089    3.4227 H   0  0  0  0  0
   -9.1143  -59.4134    4.9255 H   0  0  0  0  0
   -9.7067  -58.7177    7.7530 H   0  0  0  0  0
   -7.7120  -60.3027    6.9747 H   0  0  0  0  0
   -7.4355  -59.1338    8.2937 H   0  0  0  0  0
   -6.3259  -58.8944    3.7500 H   0  0  0  0  0
   -7.1923  -60.8396    4.7683 H   0  0  0  0  0
   -8.7021  -56.8033    8.7344 H   0  0  0  0  0
   -8.2337  -54.6775    6.7519 H   0  0  0  0  0
   -9.5332  -53.1285    8.2660 H   0  0  0  0  0
   -9.8468  -54.5349    9.3672 H   0  0  0  0  0
   -5.9279  -55.3776    7.3622 H   0  0  0  0  0
   -4.7332  -54.8439    9.8012 H   0  0  0  0  0
   -2.7465  -53.9881    8.3326 H   0  0  0  0  0
   -3.8056  -54.5367    6.9670 H   0  0  0  0  0
   -4.0673  -56.5817    6.7928 H   0  0  0  0  0
   -3.5835  -53.1020   10.6767 H   0  0  0  0  0
   -4.8181  -50.6522   10.9278 H   0  0  0  0  0
   -3.0340  -51.0888   12.4654 H   0  0  0  0  0
   -2.3491  -49.8128   11.4472 H   0  0  0  0  0
    0.6758  -50.5459   10.2708 H   0  0  0  0  0
    0.8015  -52.8575   10.6711 H   0  0  0  0  0
   -4.8459  -48.6839    9.9506 H   0  0  0  0  0
   -3.1712  -48.3673    7.5127 H   0  0  0  0  0
   -4.8210  -46.6578    6.8284 H   0  0  0  0  0
   -5.7129  -46.8988    8.3649 H   0  0  0  0  0
   -1.3380  -47.8905    8.9123 H   0  0  0  0  0
   -1.4687  -45.1466   10.1138 H   0  0  0  0  0
   -0.1122  -47.5829   11.2979 H   0  0  0  0  0
   -1.6910  -46.8729   11.8536 H   0  0  0  0  0
   -0.4525  -44.3580   11.2656 H   0  0  0  0  0
   -0.1826  -43.9159    8.9521 H   0  0  0  0  0
    2.5495  -44.8665    8.6382 H   0  0  0  0  0
    2.6234  -44.2087    6.2303 H   0  0  0  0  0
    0.8857  -43.6953    6.3365 H   0  0  0  0  0
    4.1508  -43.2466    7.8877 H   0  0  0  0  0
    4.0857  -40.8980    9.4219 H   0  0  0  0  0
    5.6094  -41.8729    7.0518 H   0  0  0  0  0
    6.1829  -41.3671    8.7276 H   0  0  0  0  0
    5.9217  -39.0641    8.0695 H   0  0  0  0  0
    5.4550  -39.6036    6.4066 H   0  0  0  0  0
    7.0364  -39.1910    5.2915 H   0  0  0  0  0
    2.9781  -41.3652    6.0635 H   0  0  0  0  0
    2.3670  -38.4753    5.9004 H   0  0  0  0  0
    3.4143  -39.6228    3.9805 H   0  0  0  0  0
    1.7900  -38.9315    3.5639 H   0  0  0  0  0
    2.8580  -41.8018    4.9603 H   0  0  0  0  0
    0.8621  -41.2296    7.0088 H   0  0  0  0  0
   -1.6603  -39.7757    7.1827 H   0  0  0  0  0
   -1.6381  -42.6016    6.0193 H   0  0  0  0  0
   -1.7019  -41.1056    4.9883 H   0  0  0  0  0
   -0.4466  -42.3725   10.8764 H   0  0  0  0  0
    0.8085  -40.4911   11.7767 H   0  0  0  0  0
   -0.5991  -40.3529   12.7567 H   0  0  0  0  0
    0.1135  -38.2839   11.2612 H   0  0  0  0  0
   -1.5749  -38.6773   11.3862 H   0  0  0  0  0
   -1.3665  -38.7605    9.0329 H   0  0  0  0  0
    0.2963  -39.1658    9.0804 H   0  0  0  0  0
   -1.6997  -43.5697   11.9892 H   0  0  0  0  0
   -4.5512  -42.9753   12.0375 H   0  0  0  0  0
   -3.7501  -45.2899   11.8463 H   0  0  0  0  0
   -2.9518  -45.1560   13.4324 H   0  0  0  0  0
   -4.7274  -45.0806   13.3201 H   0  0  0  0  0
   -5.8073  -42.3539   13.7221 H   0  0  0  0  0
   -4.4288  -41.2038   16.0664 H   0  0  0  0  0
   -6.1964  -39.8860   14.9899 H   0  0  0  0  0
   -7.3659  -41.1981   15.2755 H   0  0  0  0  0
   -6.6594  -40.3195   16.6539 H   0  0  0  0  0
   -5.2625  -41.6067   18.2325 H   0  0  0  0  0
   -6.4911  -44.2900   18.6097 H   0  0  0  0  0
   -3.8836  -43.4226   19.8304 H   0  0  0  0  0
   -4.1647  -44.7519   18.5492 H   0  0  0  0  0
   -4.9341  -44.7771   21.4503 H   0  0  0  0  0
   -6.5709  -45.9254   20.0726 H   0  0  0  0  0
   -5.2760  -46.8544   19.2781 H   0  0  0  0  0
   -5.6078  -47.0926   21.0114 H   0  0  0  0  0
   -2.8487  -46.3403   19.8759 H   0  0  0  0  0
   -2.5210  -45.0821   21.0927 H   0  0  0  0  0
   -3.2776  -46.6181   21.5818 H   0  0  0  0  0
   -4.9067  -41.6345   20.4690 H   0  0  0  0  0
   -7.1245  -41.8911   22.4327 H   0  0  0  0  0
   -5.7171  -40.7895   23.9873 H   0  0  0  0  0
   -4.5934  -40.2448   22.6605 H   0  0  0  0  0
   -2.4818  -41.6601   22.3954 H   0  0  0  0  0
   -6.8718  -43.2918   24.4691 H   0  0  0  0  0
   -2.8481  -46.2738   24.3806 H   0  0  0  0  0
   -6.9567  -45.5767   25.4145 H   0  0  0  0  0
   -4.9720  -47.0427   25.3694 H   0  0  0  0  0
   -8.4628  -38.6184   22.2668 H   0  0  0  0  0
   -8.2863  -40.0859   23.2346 H   0  0  0  0  0
  1  2  1  0  0  0
  1  7  1  0  0  0
  2  3  1  0  0  0
  2  5  1  0  0  0
  3  4  2  0  0  0
  3  8  1  0  0  0
  5  6  1  0  0  0
  6  7  1  0  0  0
  8  9  1  0  0  0
  9 10  1  0  0  0
  9 12  1  0  0  0
 10 11  1  0  0  0
 11 14  1  0  0  0
 12 13  2  0  0  0
 12 18  1  0  0  0
 14 15  1  0  0  0
 14 16  1  0  0  0
 14 17  2  0  0  0
 18 19  1  0  0  0
 19 20  1  0  0  0
 19 32  1  0  0  0
 20 21  1  0  0  0
 21 22  4  0  0  0
 21 24  4  0  0  0
 22 23  1  0  0  0
 22 26  4  0  0  0
 24 25  1  0  0  0
 24 28  4  0  0  0
 26 27  1  0  0  0
 26 30  4  0  0  0
 28 29  1  0  0  0
 28 30  4  0  0  0
 30 31  1  0  0  0
 32 33  2  0  0  0
 32 34  1  0  0  0
 34 35  1  0  0  0
 35 36  1  0  0  0
 35 38  1  0  0  0
 36 37  2  0  0  0
 36 42  1  0  0  0
 38 39  1  0  0  0
 39 40  1  0  0  0
 39 41  2  0  0  0
 42 43  1  0  0  0
 43 44  1  0  0  0
 43 46  1  0  0  0
 44 45  1  0  0  0
 45 48  1  0  0  0
 46 47  2  0  0  0
 46 52  1  0  0  0
 48 49  1  0  0  0
 48 50  1  0  0  0
 48 51  2  0  0  0
 52 53  1  0  0  0
 53 54  1  0  0  0
 53 66  1  0  0  0
 54 55  1  0  0  0
 55 56  4  0  0  0
 55 58  4  0  0  0
 56 57  1  0  0  0
 56 60  4  0  0  0
 58 59  1  0  0  0
 58 62  4  0  0  0
 60 61  1  0  0  0
 60 64  4  0  0  0
 62 63  1  0  0  0
 62 64  4  0  0  0
 64 65  1  0  0  0
 66 67  2  0  0  0
 66 68  1  0  0  0
 68 69  1  0  0  0
 69 70  1  0  0  0
 69 72  1  0  0  0
 70 71  2  0  0  0
 70 76  1  0  0  0
 72 73  1  0  0  0
 73 74  1  0  0  0
 73 75  2  0  0  0
 76 77  1  0  0  0
 77 78  1  0  0  0
 77 90  1  0  0  0
 78 79  1  0  0  0
 79 80  4  0  0  0
 79 82  4  0  0  0
 80 81  1  0  0  0
 80 84  4  0  0  0
 82 83  1  0  0  0
 82 86  4  0  0  0
 84 85  1  0  0  0
 84 88  4  0  0  0
 86 87  1  0  0  0
 86 88  4  0  0  0
 88 89  1  0  0  0
 90 91  2  0  0  0
 90 92  1  0  0  0
 92 93  1  0  0  0
 93 94  1  0  0  0
 93 96  1  0  0  0
 94 95  2  0  0  0
 94101  1  0  0  0
 96 97  1  0  0  0
 97 98  1  0  0  0
 98 99  2  0  0  0
 98100  1  0  0  0
101102  1  0  0  0
102103  1  0  0  0
102105  1  0  0  0
103104  2  0  0  0
103109  1  0  0  0
105106  1  0  0  0
106107  1  0  0  0
106108  2  0  0  0
109110  1  0  0  0
110111  1  0  0  0
110123  1  0  0  0
111112  1  0  0  0
112113  4  0  0  0
112115  4  0  0  0
113114  1  0  0  0
113117  4  0  0  0
115116  1  0  0  0
115119  4  0  0  0
117118  1  0  0  0
117121  4  0  0  0
119120  1  0  0  0
119121  4  0  0  0
121122  1  0  0  0
123124  2  0  0  0
123125  1  0  0  0
125126  1  0  0  0
125131  1  0  0  0
126127  1  0  0  0
126129  1  0  0  0
127128  2  0  0  0
127132  1  0  0  0
129130  1  0  0  0
130131  1  0  0  0
132133  1  0  0  0
133134  1  0  0  0
133136  1  0  0  0
134135  2  0  0  0
134137  1  0  0  0
137138  1  0  0  0
138139  1  0  0  0
138141  1  0  0  0
139140  2  0  0  0
139142  1  0  0  0
142143  1  0  0  0
143144  1  0  0  0
143146  1  0  0  0
144145  2  0  0  0
144150  1  0  0  0
146147  1  0  0  0
147148  1  0  0  0
147149  1  0  0  0
150151  1  0  0  0
151152  1  0  0  0
151154  1  0  0  0
152153  2  0  0  0
152164  1  0  0  0
154155  1  0  0  0
155156  4  0  0  0
155157  4  0  0  0
156158  4  0  0  0
157159  4  0  0  0
157160  4  0  0  0
158159  4  0  0  0
159161  4  0  0  0
160162  4  0  0  0
161163  4  0  0  0
162163  4  0  0  0
  1165  1  0  0  0
  1166  1  0  0  0
  2167  1  0  0  0
  5168  1  0  0  0
  5169  1  0  0  0
  6170  1  0  0  0
  6171  1  0  0  0
  7172  1  0  0  0
  7173  1  0  0  0
  8174  1  0  0  0
  9175  1  0  0  0
 10176  1  0  0  0
 10177  1  0  0  0
 15178  1  0  0  0
 16179  1  0  0  0
 18180  1  0  0  0
 19181  1  0  0  0
 20182  1  0  0  0
 20183  1  0  0  0
 34184  1  0  0  0
 35185  1  0  0  0
 38186  1  0  0  0
 38187  1  0  0  0
 40188  1  0  0  0
 42189  1  0  0  0
 43190  1  0  0  0
 44191  1  0  0  0
 44192  1  0  0  0
 49193  1  0  0  0
 50194  1  0  0  0
 52195  1  0  0  0
 53196  1  0  0  0
 54197  1  0  0  0
 54198  1  0  0  0
 68199  1  0  0  0
 69200  1  0  0  0
 72201  1  0  0  0
 72202  1  0  0  0
 74203  1  0  0  0
 76204  1  0  0  0
 77205  1  0  0  0
 78206  1  0  0  0
 78207  1  0  0  0
 92208  1  0  0  0
 93209  1  0  0  0
 96210  1  0  0  0
 96211  1  0  0  0
 97212  1  0  0  0
 97213  1  0  0  0
100214  1  0  0  0
101215  1  0  0  0
102216  1  0  0  0
105217  1  0  0  0
105218  1  0  0  0
107219  1  0  0  0
109220  1  0  0  0
110221  1  0  0  0
111222  1  0  0  0
111223  1  0  0  0
126224  1  0  0  0
129225  1  0  0  0
129226  1  0  0  0
130227  1  0  0  0
130228  1  0  0  0
131229  1  0  0  0
131230  1  0  0  0
132231  1  0  0  0
133232  1  0  0  0
136233  1  0  0  0
136234  1  0  0  0
136235  1  0  0  0
137236  1  0  0  0
138237  1  0  0  0
141238  1  0  0  0
141239  1  0  0  0
141240  1  0  0  0
142241  1  0  0  0
143242  1  0  0  0
146243  1  0  0  0
146244  1  0  0  0
147245  1  0  0  0
148246  1  0  0  0
148247  1  0  0  0
148248  1  0  0  0
149249  1  0  0  0
149250  1  0  0  0
149251  1  0  0  0
150252  1  0  0  0
151253  1  0  0  0
154254  1  0  0  0
154255  1  0  0  0
156256  1  0  0  0
160257  1  0  0  0
161258  1  0  0  0
162259  1  0  0  0
163260  1  0  0  0
164261  1  0  0  0
164262  1  0  0  0
M  END
$$$$
