6eo0_ligand
  -I-interpret- 

144151  0  0  0  0  0  0  0  0999 V2000
   50.4670   33.5130   52.0890 C   0  0  0  0  0
   51.6850   33.8400   52.4980 C   0  0  0  0  0
   52.7200   33.0370   52.2530 C   0  0  0  0  0
   50.3200   35.4060   53.0790 C   0  0  0  0  0
   52.5700   31.8830   51.5970 N   0  0  0  0  0
   50.2340   32.3790   51.4310 N   0  0  0  0  0
   31.3130   46.8120   44.1900 C   0  0  0  0  0
   32.1080   47.6540   43.4280 C   0  0  0  0  0
   32.9630   47.0910   42.4990 C   0  0  0  0  0
   32.9910   45.7100   42.3690 C   0  0  0  0  0
   32.2100   44.9470   43.1290 C   0  0  0  0  0
   31.3810   45.4940   44.0280 C   0  0  0  0  0
   30.7250   44.5100   44.6410 N   0  0  0  0  0
   31.1350   43.3510   44.1370 C   0  0  0  0  0
   32.0340   43.6270   43.1970 C   0  0  0  0  0
   32.7510   42.5510   42.4010 C   0  0  0  0  0
   34.1280   43.1200   42.0970 C   0  0  0  0  0
   35.0070   42.6520   43.2420 C   0  0  0  0  0
   36.2140   42.4810   43.0900 O   0  0  0  0  0
   34.3260   42.4050   44.3670 N   0  0  0  0  0
   34.9640   41.9220   45.5970 C   0  0  0  0  0
   33.9700   42.0440   46.7540 C   0  0  0  0  0
   36.1840   42.7670   45.9100 C   0  0  0  0  0
   34.6970   42.5960   40.8430 N   0  0  0  0  0
   35.5720   43.3180   40.1220 C   0  0  0  0  0
   35.9120   44.4670   40.4080 O   0  0  0  0  0
   36.1150   42.6250   38.8720 C   0  0  0  0  0
   35.4840   43.2040   37.6890 N   0  0  0  0  0
   34.2450   42.9180   37.2960 C   0  0  0  0  0
   33.5580   42.1370   37.9440 O   0  0  0  0  0
   33.7550   43.5120   36.1700 O   0  0  0  0  0
   32.3590   43.2690   36.0700 C   0  0  0  0  0
   31.7370   44.3390   35.4410 C   0  0  0  0  0
   30.6580   44.1050   34.6040 C   0  0  0  0  0
   30.0120   45.1500   33.9560 C   0  0  0  0  0
   30.4550   46.4470   34.1600 C   0  0  0  0  0
   31.5420   46.6910   34.9900 C   0  0  0  0  0
   32.1840   45.6360   35.6330 C   0  0  0  0  0
   37.5980   42.8830   38.6800 C   0  0  0  0  0
   38.3090   42.8170   40.0140 C   0  0  0  0  0
   39.7010   43.2500   39.5910 C   0  0  0  0  0
   40.5690   43.1910   40.8210 C   0  0  0  0  0
   41.8930   43.7080   40.4030 N   0  3  0  0  0
   42.8350   43.5940   41.5440 C   0  0  0  0  0
   43.4230   44.9370   41.6200 N   0  3  0  0  0
   44.7690   44.7170   41.1070 C   0  0  0  0  0
   45.1420   45.9900   40.3970 C   0  0  0  0  0
   45.8190   46.7620   41.5190 C   0  0  0  0  0
   45.3260   47.8550   41.8410 O   0  0  0  0  0
   46.7940   46.2170   42.0730 O   0  0  0  0  0
   43.9130   42.5700   41.7010 O   0  0  0  0  0
   41.6930   42.8970   42.6850 S   0  0  0  0  0
   42.8240   42.1230   43.7910 C   0  0  0  0  0
   42.8490   40.6760   43.7030 O   0  0  0  0  0
   44.1360   42.5360   43.1740 C   0  0  0  0  0
   45.0330   41.3870   43.6230 C   0  0  0  0  0
   45.5930   40.7490   42.4780 O   0  0  0  0  0
   44.0740   40.4370   44.3560 C   0  0  0  0  0
   43.8550   40.8830   45.8040 C   0  0  0  0  0
   44.7570   40.2120   46.6870 O   0  0  0  0  0
   44.7910   38.5810   46.8120 P   0  0  0  0  0
   46.3600   38.2410   46.7590 O   0  0  0  0  0
   43.9890   37.9030   45.7580 O   0  0  0  0  0
   44.3590   38.2470   48.2890 O   0  0  0  0  0
   45.2000   38.8550   49.5270 P   0  0  0  0  0
   44.1200   39.8900   50.1020 O   0  0  0  0  0
   46.5030   39.4260   49.1290 O   0  0  0  0  0
   45.3850   37.6110   50.5220 O   0  0  0  0  0
   46.6880   37.0380   50.6110 C   0  0  0  0  0
   46.5890   35.5370   50.8890 C   0  0  0  0  0
   47.9520   34.9900   50.8270 O   0  0  0  0  0
   46.0750   35.2730   52.3150 C   0  0  0  0  0
   45.2940   34.0810   52.3420 O   0  0  0  0  0
   47.3450   35.0690   53.1160 C   0  0  0  0  0
   47.1250   34.2120   54.2440 O   0  0  0  0  0
   48.2190   34.3570   52.1080 C   0  0  0  0  0
   49.6380   34.4710   52.4390 N   0  0  0  0  0
   51.5940   35.0200   53.1140 N   0  0  0  0  0
   51.2930   31.5270   51.1630 C   0  0  0  0  0
   53.9170   33.4370   52.6900 N   0  0  0  0  0
   49.9134   36.3251   53.5009 H   0  0  0  0  0
   30.6282   47.2328   44.9262 H   0  0  0  0  0
   32.0601   48.7351   43.5583 H   0  0  0  0  0
   33.6030   47.7201   41.8804 H   0  0  0  0  0
   33.6566   45.2476   41.6401 H   0  0  0  0  0
   30.7974   42.3592   44.4379 H   0  0  0  0  0
   32.2106   42.3033   41.4873 H   0  0  0  0  0
   32.8190   41.6184   42.9611 H   0  0  0  0  0
   34.0655   44.2029   41.9892 H   0  0  0  0  0
   33.3178   42.5594   44.3697 H   0  0  0  0  0
   35.2651   40.8830   45.4634 H   0  0  0  0  0
   33.6809   43.0880   46.8744 H   0  0  0  0  0
   33.0864   41.4437   46.5371 H   0  0  0  0  0
   34.4371   41.6868   47.6718 H   0  0  0  0  0
   36.8931   42.6986   45.0850 H   0  0  0  0  0
   35.8805   43.8052   46.0448 H   0  0  0  0  0
   36.6521   42.4023   46.8243 H   0  0  0  0  0
   34.4222   41.6696   40.5164 H   0  0  0  0  0
   35.9166   41.5604   38.9962 H   0  0  0  0  0
   36.0241   43.8659   37.1317 H   0  0  0  0  0
   31.9425   43.1483   37.0701 H   0  0  0  0  0
   32.1926   42.3631   35.4871 H   0  0  0  0  0
   30.3101   43.0833   34.4514 H   0  0  0  0  0
   29.1676   44.9524   33.2956 H   0  0  0  0  0
   29.9494   47.2779   33.6680 H   0  0  0  0  0
   31.8935   47.7120   35.1384 H   0  0  0  0  0
   33.0355   45.8300   36.2853 H   0  0  0  0  0
   37.7375   43.8734   38.2468 H   0  0  0  0  0
   38.0115   42.1254   38.0143 H   0  0  0  0  0
   38.2681   41.8416   40.4989 H   0  0  0  0  0
   37.8625   43.4339   40.7939 H   0  0  0  0  0
   39.6838   44.2583   39.1773 H   0  0  0  0  0
   40.0898   42.5953   38.8110 H   0  0  0  0  0
   40.6431   42.1742   41.2067 H   0  0  0  0  0
   40.1488   43.7847   41.6328 H   0  0  0  0  0
   41.8088   44.6847   40.1214 H   0  0  0  0  0
   42.2413   43.1656   39.6125 H   0  0  0  0  0
   43.4118   45.3270   42.5624 H   0  0  0  0  0
   42.9006   45.6341   41.0895 H   0  0  0  0  0
   44.8049   43.8597   40.4348 H   0  0  0  0  0
   45.4697   44.4875   41.9098 H   0  0  0  0  0
   44.2941   46.5113   39.9528 H   0  0  0  0  0
   45.7749   45.8376   39.5228 H   0  0  0  0  0
   46.9805   45.3808   41.6398 H   0  0  0  0  0
   42.5936   42.3903   44.8223 H   0  0  0  0  0
   44.5526   43.5050   43.4488 H   0  0  0  0  0
   45.8644   41.7043   44.2525 H   0  0  0  0  0
   46.1577   40.0257   42.7602 H   0  0  0  0  0
   44.4430   39.4114   44.3512 H   0  0  0  0  0
   42.8333   40.6389   46.0950 H   0  0  0  0  0
   44.0330   41.9563   45.8707 H   0  0  0  0  0
   46.8120   38.7105   47.4639 H   0  0  0  0  0
   43.3152   39.4182   50.3285 H   0  0  0  0  0
   47.2324   37.5159   51.4254 H   0  0  0  0  0
   47.2100   37.1917   49.6665 H   0  0  0  0  0
   45.9109   35.0860   50.1645 H   0  0  0  0  0
   45.4466   36.0777   52.6968 H   0  0  0  0  0
   44.9789   33.9264   53.2355 H   0  0  0  0  0
   47.7548   35.9944   53.5206 H   0  0  0  0  0
   47.9471   34.1044   54.7278 H   0  0  0  0  0
   47.9924   33.2909   52.0953 H   0  0  0  0  0
   51.1312   30.5945   50.6223 H   0  0  0  0  0
   54.0085   34.3229   53.1871 H   0  0  0  0  0
   54.7397   32.8565   52.5266 H   0  0  0  0  0
  1  2  4  0  0  0
  1  6  4  0  0  0
 77  1  4  0  0  0
  2  3  4  0  0  0
 78  2  4  0  0  0
  3  5  4  0  0  0
  3 80  1  0  0  0
 77  4  4  0  0  0
  4 78  4  0  0  0
 79  5  4  0  0  0
  6 79  4  0  0  0
  7  8  4  0  0  0
 12  7  4  0  0  0
  9  8  4  0  0  0
 10  9  4  0  0  0
 11 10  4  0  0  0
 11 12  4  0  0  0
 15 11  4  0  0  0
 13 12  4  0  0  0
 14 13  4  0  0  0
 15 14  4  0  0  0
 16 15  1  0  0  0
 17 16  1  0  0  0
 17 18  1  0  0  0
 24 17  1  0  0  0
 18 19  2  0  0  0
 18 20  1  0  0  0
 20 21  1  0  0  0
 21 22  1  0  0  0
 21 23  1  0  0  0
 25 24  1  0  0  0
 25 26  2  0  0  0
 27 25  1  0  0  0
 27 28  1  0  0  0
 39 27  1  0  0  0
 28 29  1  0  0  0
 29 30  2  0  0  0
 29 31  1  0  0  0
 31 32  1  0  0  0
 32 33  1  0  0  0
 33 34  4  0  0  0
 33 38  4  0  0  0
 34 35  4  0  0  0
 35 36  4  0  0  0
 37 36  4  0  0  0
 38 37  4  0  0  0
 40 39  1  0  0  0
 41 40  1  0  0  0
 42 41  1  0  0  0
 43 42  1  0  0  0
 44 43  1  0  0  0
 44 45  1  0  0  0
 51 44  1  0  0  0
 52 44  1  0  0  0
 45 46  1  0  0  0
 46 47  1  0  0  0
 47 48  1  0  0  0
 48 49  2  0  0  0
 48 50  1  0  0  0
 55 51  1  0  0  0
 53 52  1  0  0  0
 54 53  1  0  0  0
 55 53  1  0  0  0
 58 54  1  0  0  0
 56 55  1  0  0  0
 56 57  1  0  0  0
 58 56  1  0  0  0
 59 58  1  0  0  0
 60 59  1  0  0  0
 61 60  1  0  0  0
 61 62  1  0  0  0
 61 63  2  0  0  0
 64 61  1  0  0  0
 65 64  1  0  0  0
 65 66  1  0  0  0
 65 67  2  0  0  0
 68 65  1  0  0  0
 69 68  1  0  0  0
 70 69  1  0  0  0
 71 70  1  0  0  0
 72 70  1  0  0  0
 76 71  1  0  0  0
 72 73  1  0  0  0
 74 72  1  0  0  0
 74 75  1  0  0  0
 76 74  1  0  0  0
 76 77  1  0  0  0
  4 81  1  0  0  0
  7 82  1  0  0  0
  8 83  1  0  0  0
  9 84  1  0  0  0
 10 85  1  0  0  0
 14 86  1  0  0  0
 16 87  1  0  0  0
 16 88  1  0  0  0
 17 89  1  0  0  0
 20 90  1  0  0  0
 21 91  1  0  0  0
 22 92  1  0  0  0
 22 93  1  0  0  0
 22 94  1  0  0  0
 23 95  1  0  0  0
 23 96  1  0  0  0
 23 97  1  0  0  0
 24 98  1  0  0  0
 27 99  1  0  0  0
 28100  1  0  0  0
 32101  1  0  0  0
 32102  1  0  0  0
 34103  1  0  0  0
 35104  1  0  0  0
 36105  1  0  0  0
 37106  1  0  0  0
 38107  1  0  0  0
 39108  1  0  0  0
 39109  1  0  0  0
 40110  1  0  0  0
 40111  1  0  0  0
 41112  1  0  0  0
 41113  1  0  0  0
 42114  1  0  0  0
 42115  1  0  0  0
 43116  1  0  0  0
 43117  1  0  0  0
 45118  1  0  0  0
 45119  1  0  0  0
 46120  1  0  0  0
 46121  1  0  0  0
 47122  1  0  0  0
 47123  1  0  0  0
 50124  1  0  0  0
 53125  1  0  0  0
 55126  1  0  0  0
 56127  1  0  0  0
 57128  1  0  0  0
 58129  1  0  0  0
 59130  1  0  0  0
 59131  1  0  0  0
 62132  1  0  0  0
 66133  1  0  0  0
 69134  1  0  0  0
 69135  1  0  0  0
 70136  1  0  0  0
 72137  1  0  0  0
 73138  1  0  0  0
 74139  1  0  0  0
 75140  1  0  0  0
 76141  1  0  0  0
 79142  1  0  0  0
 80143  1  0  0  0
 80144  1  0  0  0
M  END
$$$$
