6g8k_ligand
  -I-interpret- 

 71 72  0  0  0  0  0  0  0  0999 V2000
   13.2570  -11.3130  -15.0990 N   0  3  0  0  0
   12.8700  -12.5870  -14.4860 C   0  0  0  0  0
   13.3980  -12.7040  -13.0610 C   0  0  0  0  0
   14.4020  -12.0930  -12.6910 O   0  0  0  0  0
   13.3790  -13.7440  -15.3260 C   0  0  0  0  0
   12.7110  -13.5080  -12.2640 N   0  0  0  0  0
   13.0920  -13.7300  -10.8850 C   0  0  0  0  0
   14.0880  -14.8520  -10.7660 C   0  0  0  0  0
   13.8680  -15.9210  -11.2950 O   0  0  0  0  0
   11.8480  -14.1070  -10.0860 C   0  0  0  0  0
   10.7190  -13.1470  -10.2700 C   0  0  0  0  0
   10.5550  -12.0470   -9.4600 N   0  0  0  0  0
    9.7230  -13.0940  -11.1880 C   0  0  0  0  0
    9.4960  -11.3650   -9.8580 C   0  0  0  0  0
    8.9750  -11.9770  -10.9060 N   0  0  0  0  0
   15.1990  -14.6120  -10.0980 N   0  0  0  0  0
   16.1250  -15.6880   -9.7610 C   0  0  0  0  0
   17.5550  -15.3630  -10.1780 C   0  0  0  0  0
   17.9550  -14.1470   -9.5600 O   0  0  0  0  0
   15.9750  -15.9250   -8.2810 C   0  0  0  0  0
   15.1790  -15.2600   -7.6010 O   0  0  0  0  0
   19.4080  -13.5950   -9.9330 P   0  0  0  0  0
   19.4220  -13.2260  -11.4500 O   0  0  0  0  0
   19.5500  -12.3470   -9.0360 O   0  0  0  0  0
   20.4400  -14.7120   -9.6090 O   0  0  0  0  0
   16.7810  -16.7960   -7.7180 N   0  0  0  0  0
   16.7290  -16.9290   -6.2750 C   0  0  0  0  0
   17.0540  -15.5850   -5.6080 C   0  0  0  0  0
   18.0380  -14.9300   -5.9620 O   0  0  0  0  0
   17.7000  -17.9930   -5.8340 C   0  0  0  0  0
   17.2890  -19.2130   -6.3950 O   0  0  0  0  0
   16.2060  -15.1490   -4.6600 N   0  0  0  0  0
   16.4970  -13.8930   -3.9530 C   0  0  0  0  0
   17.8520  -13.9160   -3.2380 C   0  0  0  0  0
   18.4820  -12.8580   -3.1150 O   0  0  0  0  0
   15.3580  -13.7750   -2.9270 C   0  0  0  0  0
   14.2890  -14.7080   -3.3790 C   0  0  0  0  0
   14.9480  -15.7770   -4.2140 C   0  0  0  0  0
   18.2810  -14.9920   -2.8020 O   0  0  0  0  0
   12.8883  -11.2683  -16.0490 H   0  0  0  0  0
   12.8767  -10.5429  -14.5488 H   0  0  0  0  0
   14.2744  -11.2444  -15.1243 H   0  0  0  0  0
   11.7814  -12.6216  -14.4437 H   0  0  0  0  0
   14.4687  -13.7261  -15.3445 H   0  0  0  0  0
   13.0371  -14.6839  -14.8927 H   0  0  0  0  0
   12.9955  -13.6500  -16.3420 H   0  0  0  0  0
   11.8885  -13.9853  -12.6328 H   0  0  0  0  0
   13.5461  -12.8154  -10.5038 H   0  0  0  0  0
   12.1186  -14.1010   -9.0301 H   0  0  0  0  0
   11.5128  -15.0831  -10.4368 H   0  0  0  0  0
    9.5487  -13.8035  -11.9969 H   0  0  0  0  0
    9.1165  -10.4520   -9.3993 H   0  0  0  0  0
   15.4150  -13.6571   -9.8117 H   0  0  0  0  0
   15.8909  -16.5998  -10.3104 H   0  0  0  0  0
   17.6058  -15.2575  -11.2617 H   0  0  0  0  0
   18.2198  -16.1686   -9.8663 H   0  0  0  0  0
   19.3318  -14.0256  -11.9735 H   0  0  0  0  0
   20.2995  -15.4566  -10.1984 H   0  0  0  0  0
   17.4217  -17.3596   -8.2768 H   0  0  0  0  0
   15.7237  -17.2230   -5.9731 H   0  0  0  0  0
   17.7137  -18.0636   -4.7464 H   0  0  0  0  0
   18.7079  -17.7453   -6.1671 H   0  0  0  0  0
   17.8949  -19.9076   -6.1267 H   0  0  0  0  0
   16.5547  -13.0530   -4.6453 H   0  0  0  0  0
   14.9866  -12.7518   -2.8699 H   0  0  0  0  0
   15.7044  -14.0316   -1.9259 H   0  0  0  0  0
   13.7808  -15.1510   -2.5225 H   0  0  0  0  0
   13.5384  -14.1753   -3.9629 H   0  0  0  0  0
   15.1188  -16.6957   -3.6528 H   0  0  0  0  0
   14.3239  -16.0950   -5.0491 H   0  0  0  0  0
   17.6501  -15.6890   -2.9962 H   0  0  0  0  0
  2  1  1  0  0  0
  2  5  1  0  0  0
  3  2  1  0  0  0
  3  4  2  0  0  0
  7  6  1  0  0  0
  7 10  1  0  0  0
  8  7  1  0  0  0
  8  9  2  0  0  0
 10 11  1  0  0  0
 11 12  4  0  0  0
 11 13  4  0  0  0
 13 15  4  0  0  0
 15 14  4  0  0  0
 12 14  4  0  0  0
  6  3  1  0  0  0
 17 16  1  0  0  0
 17 18  1  0  0  0
 20 17  1  0  0  0
 18 19  1  0  0  0
 19 22  1  0  0  0
 20 21  2  0  0  0
 22 23  1  0  0  0
 22 24  2  0  0  0
 22 25  1  0  0  0
 16  8  1  0  0  0
 27 26  1  0  0  0
 27 30  1  0  0  0
 28 27  1  0  0  0
 28 29  2  0  0  0
 30 31  1  0  0  0
 26 20  1  0  0  0
 33 34  1  0  0  0
 33 36  1  0  0  0
 32 33  1  0  0  0
 32 38  1  0  0  0
 38 37  1  0  0  0
 37 36  1  0  0  0
 34 39  1  0  0  0
 34 35  2  0  0  0
 28 32  1  0  0  0
  1 40  1  0  0  0
  1 41  1  0  0  0
  1 42  1  0  0  0
  2 43  1  0  0  0
  5 44  1  0  0  0
  5 45  1  0  0  0
  5 46  1  0  0  0
  6 47  1  0  0  0
  7 48  1  0  0  0
 10 49  1  0  0  0
 10 50  1  0  0  0
 13 51  1  0  0  0
 14 52  1  0  0  0
 16 53  1  0  0  0
 17 54  1  0  0  0
 18 55  1  0  0  0
 18 56  1  0  0  0
 23 57  1  0  0  0
 25 58  1  0  0  0
 26 59  1  0  0  0
 27 60  1  0  0  0
 30 61  1  0  0  0
 30 62  1  0  0  0
 31 63  1  0  0  0
 33 64  1  0  0  0
 36 65  1  0  0  0
 36 66  1  0  0  0
 37 67  1  0  0  0
 37 68  1  0  0  0
 38 69  1  0  0  0
 38 70  1  0  0  0
 39 71  1  0  0  0
M  END
$$$$
