6g8p_ligand
  -I-interpret- 

 74 75  0  0  0  0  0  0  0  0999 V2000
   13.2430  -11.3510  -15.0380 N   0  3  0  0  0
   12.9010  -12.6260  -14.4110 C   0  0  0  0  0
   13.4090  -12.6880  -12.9720 C   0  0  0  0  0
   14.4130  -12.0610  -12.6240 O   0  0  0  0  0
   13.4720  -13.7880  -15.2140 C   0  0  0  0  0
   12.7010  -13.4500  -12.1430 N   0  0  0  0  0
   13.1060  -13.6770  -10.7650 C   0  0  0  0  0
   14.1270  -14.7980  -10.7050 C   0  0  0  0  0
   13.9280  -15.8540  -11.2960 O   0  0  0  0  0
   11.9050  -14.0470   -9.8890 C   0  0  0  0  0
   10.7730  -13.0710   -9.9580 C   0  0  0  0  0
   10.1260  -12.7600  -11.1350 N   0  0  0  0  0
   10.1570  -12.3530   -8.9890 C   0  0  0  0  0
    9.1690  -11.8840  -10.8910 C   0  0  0  0  0
    9.1650  -11.6210   -9.5960 N   0  0  0  0  0
   15.2170  -14.5760   -9.9890 N   0  0  0  0  0
   16.1400  -15.6640   -9.7060 C   0  0  0  0  0
   17.5680  -15.2890  -10.0970 C   0  0  0  0  0
   17.9440  -14.1230   -9.4060 O   0  0  0  0  0
   16.0230  -15.9800   -8.2170 C   0  0  0  0  0
   15.2830  -15.3050   -7.4900 O   0  0  0  0  0
   19.4050  -13.6010   -9.8120 P   0  0  0  0  0
   19.3870  -13.2360  -11.3670 O   0  0  0  0  0
   20.5170  -14.7330   -9.5360 O   0  0  0  0  0
   19.6480  -12.2920   -8.9400 O   0  0  0  0  0
   16.7500  -16.9890   -7.7550 N   0  0  0  0  0
   16.5270  -17.4930   -6.4110 C   0  0  0  0  0
   16.9340  -16.4290   -5.3940 C   0  0  0  0  0
   17.8450  -15.6410   -5.6420 O   0  0  0  0  0
   17.3010  -18.7860   -6.1680 C   0  0  0  0  0
   18.6860  -18.5350   -6.0330 O   0  0  0  0  0
   17.9700  -13.7910   -1.5600 C   0  0  0  0  0
   17.9110  -14.9530   -2.5340 C   0  0  0  0  0
   16.5590  -15.0120   -3.2780 C   0  0  0  0  0
   15.3520  -15.0390   -2.3140 C   0  0  0  0  0
   14.5540  -16.3020   -2.6390 C   0  0  0  0  0
   15.0590  -16.7440   -4.0040 C   0  0  0  0  0
   16.4600  -16.2790   -4.0540 N   0  0  0  0  0
   18.5070  -12.7430   -1.8450 O   0  0  0  0  0
   17.4453  -13.9197   -0.4217 O   0  0  0  0  0
   12.8526  -10.5868  -14.4867 H   0  0  0  0  0
   14.2577  -11.2564  -15.0818 H   0  0  0  0  0
   12.8566  -11.3230  -15.9816 H   0  0  0  0  0
   11.8140  -12.7058  -14.3949 H   0  0  0  0  0
   14.5604  -13.7281  -15.2138 H   0  0  0  0  0
   13.1586  -14.7291  -14.7620 H   0  0  0  0  0
   13.1042  -13.7353  -16.2387 H   0  0  0  0  0
   11.8463  -13.8893  -12.4849 H   0  0  0  0  0
   13.5431  -12.7525  -10.3878 H   0  0  0  0  0
   12.2529  -14.0641   -8.8562 H   0  0  0  0  0
   11.5272  -15.0042  -10.2483 H   0  0  0  0  0
   10.4021  -12.3553   -7.9269 H   0  0  0  0  0
    8.4965  -11.4513  -11.6317 H   0  0  0  0  0
   15.4107  -13.6394   -9.6345 H   0  0  0  0  0
   15.8890  -16.5463  -10.2947 H   0  0  0  0  0
   17.6190  -15.1109  -11.1711 H   0  0  0  0  0
   18.2447  -16.1031   -9.8374 H   0  0  0  0  0
   19.2398  -14.0339  -11.8801 H   0  0  0  0  0
   20.3319  -15.5014  -10.0809 H   0  0  0  0  0
   17.4669  -17.4117   -8.3447 H   0  0  0  0  0
   15.4666  -17.7179   -6.2965 H   0  0  0  0  0
   17.1488  -19.4481   -7.0204 H   0  0  0  0  0
   16.9383  -19.2407   -5.2462 H   0  0  0  0  0
   19.1469  -19.3634   -5.8815 H   0  0  0  0  0
   18.0318  -15.8781   -1.9704 H   0  0  0  0  0
   18.7021  -14.8210   -3.2722 H   0  0  0  0  0
   16.5292  -14.1211   -3.9054 H   0  0  0  0  0
   14.7359  -14.1487   -2.4399 H   0  0  0  0  0
   15.6854  -15.0480   -1.2763 H   0  0  0  0  0
   13.4808  -16.1118   -2.6467 H   0  0  0  0  0
   14.6964  -17.0759   -1.8848 H   0  0  0  0  0
   14.4621  -16.3245   -4.8138 H   0  0  0  0  0
   14.9838  -17.8234   -4.1354 H   0  0  0  0  0
   17.0628  -14.7968   -0.3442 H   0  0  0  0  0
  2  1  1  0  0  0
  3  2  1  0  0  0
  2  5  1  0  0  0
  3  4  2  0  0  0
  6  3  1  0  0  0
  7  6  1  0  0  0
  8  7  1  0  0  0
  7 10  1  0  0  0
  8  9  2  0  0  0
 16  8  1  0  0  0
 10 11  1  0  0  0
 11 12  4  0  0  0
 11 13  4  0  0  0
 12 14  4  0  0  0
 13 15  4  0  0  0
 15 14  4  0  0  0
 17 16  1  0  0  0
 17 18  1  0  0  0
 20 17  1  0  0  0
 18 19  1  0  0  0
 19 22  1  0  0  0
 20 21  2  0  0  0
 26 20  1  0  0  0
 22 23  1  0  0  0
 22 24  1  0  0  0
 22 25  2  0  0  0
 27 26  1  0  0  0
 28 27  1  0  0  0
 27 30  1  0  0  0
 28 29  2  0  0  0
 38 28  1  0  0  0
 30 31  1  0  0  0
 33 32  1  0  0  0
 32 39  2  0  0  0
 34 33  1  0  0  0
 34 35  1  0  0  0
 34 38  1  0  0  0
 35 36  1  0  0  0
 36 37  1  0  0  0
 37 38  1  0  0  0
 32 40  1  0  0  0
  1 41  1  0  0  0
  1 42  1  0  0  0
  1 43  1  0  0  0
  2 44  1  0  0  0
  5 45  1  0  0  0
  5 46  1  0  0  0
  5 47  1  0  0  0
  6 48  1  0  0  0
  7 49  1  0  0  0
 10 50  1  0  0  0
 10 51  1  0  0  0
 13 52  1  0  0  0
 14 53  1  0  0  0
 16 54  1  0  0  0
 17 55  1  0  0  0
 18 56  1  0  0  0
 18 57  1  0  0  0
 23 58  1  0  0  0
 24 59  1  0  0  0
 26 60  1  0  0  0
 27 61  1  0  0  0
 30 62  1  0  0  0
 30 63  1  0  0  0
 31 64  1  0  0  0
 33 65  1  0  0  0
 33 66  1  0  0  0
 34 67  1  0  0  0
 35 68  1  0  0  0
 35 69  1  0  0  0
 36 70  1  0  0  0
 36 71  1  0  0  0
 37 72  1  0  0  0
 37 73  1  0  0  0
 40 74  1  0  0  0
M  END
$$$$
