6g8q_ligand
  -I-interpret- 

 95 96  0  0  0  0  0  0  0  0999 V2000
   13.2070  -11.5100  -14.9910 N   0  3  0  0  0
   12.8600  -12.8010  -14.3790 C   0  0  0  0  0
   13.3690  -12.8790  -12.9460 C   0  0  0  0  0
   14.3560  -12.2530  -12.5940 O   0  0  0  0  0
   13.4350  -13.9440  -15.1980 C   0  0  0  0  0
   12.6780  -13.6450  -12.1110 N   0  0  0  0  0
   13.1050  -13.8750  -10.7470 C   0  0  0  0  0
   14.1250  -14.9870  -10.6880 C   0  0  0  0  0
   13.9580  -16.0300  -11.3240 O   0  0  0  0  0
   11.9110  -14.2350   -9.8690 C   0  0  0  0  0
   10.7960  -13.2380   -9.9400 C   0  0  0  0  0
   10.0180  -13.0680  -11.0670 N   0  0  0  0  0
   10.3280  -12.3590   -9.0220 C   0  0  0  0  0
    9.1200  -12.1260  -10.8400 C   0  0  0  0  0
    9.2850  -11.6810   -9.6070 N   0  0  0  0  0
   15.1660  -14.7810   -9.8920 N   0  0  0  0  0
   16.1210  -15.8610   -9.6300 C   0  0  0  0  0
   17.5460  -15.4680  -10.0560 C   0  0  0  0  0
   17.8760  -14.2450   -9.4670 O   0  0  0  0  0
   16.0160  -16.1700   -8.1440 C   0  0  0  0  0
   15.2730  -15.5260   -7.3980 O   0  0  0  0  0
   19.3740  -13.7290   -9.8000 P   0  0  0  0  0
   19.3910  -13.3420  -11.3290 O   0  0  0  0  0
   19.5020  -12.4580   -8.8750 O   0  0  0  0  0
   20.4320  -14.8760   -9.5000 O   0  0  0  0  0
   16.7630  -17.1430   -7.6860 N   0  0  0  0  0
   16.4600  -17.7260   -6.3910 C   0  0  0  0  0
   16.8850  -16.7960   -5.2690 C   0  0  0  0  0
   17.9270  -16.1280   -5.3510 O   0  0  0  0  0
   17.1530  -19.0780   -6.2370 C   0  0  0  0  0
   18.5530  -18.8980   -6.2510 O   0  0  0  0  0
   16.0810  -16.7520   -4.2110 N   0  0  0  0  0
   16.4410  -15.9260   -3.0460 C   0  0  0  0  0
   17.5520  -16.5640   -2.2390 C   0  0  0  0  0
   17.6850  -17.7730   -2.3160 O   0  0  0  0  0
   15.1430  -15.8550   -2.2380 C   0  0  0  0  0
   14.4160  -17.1140   -2.5870 C   0  0  0  0  0
   14.7590  -17.3920   -4.0450 C   0  0  0  0  0
   20.6110  -15.9010   -0.7430 C   0  0  0  0  0
   19.2150  -16.4890   -0.4110 C   0  0  0  0  0
   18.1660  -15.8110   -1.1900 N   0  0  0  0  0
   18.8890  -16.2580    1.0890 C   0  0  0  0  0
   17.6650  -17.0610    1.5030 C   0  0  0  0  0
   16.5430  -16.6130    1.3210 O   0  0  0  0  0
   17.7710  -18.3310    2.1540 N   0  0  0  0  0
   16.8230  -19.3910    2.5210 C   0  0  0  0  0
   15.6590  -18.8330    3.3520 C   0  0  0  0  0
   15.8630  -18.1220    4.3490 O   0  0  0  0  0
   17.5370  -20.5050    3.3000 C   0  0  0  0  0
   17.7820  -20.1130    4.6460 O   0  0  0  0  0
   14.4790  -19.0760    3.0520 O   0  0  0  0  0
   12.8556  -11.4834  -15.9482 H   0  0  0  0  0
   12.7844  -10.7547  -14.4513 H   0  0  0  0  0
   14.2210  -11.3994  -14.9966 H   0  0  0  0  0
   11.7735  -12.8863  -14.3626 H   0  0  0  0  0
   14.5229  -13.8770  -15.1992 H   0  0  0  0  0
   13.1287  -14.8936  -14.7593 H   0  0  0  0  0
   13.0645  -13.8786  -16.2210 H   0  0  0  0  0
   11.8191  -14.0855  -12.4407 H   0  0  0  0  0
   13.5596  -12.9560  -10.3771 H   0  0  0  0  0
   12.2599  -14.2636   -8.8368 H   0  0  0  0  0
   11.5204  -15.1894  -10.2221 H   0  0  0  0  0
   10.7070  -12.2161   -8.0100 H   0  0  0  0  0
    8.3703  -11.7755  -11.5494 H   0  0  0  0  0
   15.3022  -13.8669   -9.4605 H   0  0  0  0  0
   15.8895  -16.7500  -10.2167 H   0  0  0  0  0
   17.5934  -15.3779  -11.1412 H   0  0  0  0  0
   18.2507  -16.2339   -9.7322 H   0  0  0  0  0
   19.3115  -14.1377  -11.8602 H   0  0  0  0  0
   20.2869  -15.6092  -10.1025 H   0  0  0  0  0
   17.5509  -17.4884   -8.2341 H   0  0  0  0  0
   15.3816  -17.8733   -6.3317 H   0  0  0  0  0
   16.8637  -19.7289   -7.0621 H   0  0  0  0  0
   16.8559  -19.5311   -5.2912 H   0  0  0  0  0
   18.9850  -19.7498   -6.1540 H   0  0  0  0  0
   16.8177  -14.9432   -3.3294 H   0  0  0  0  0
   14.5598  -14.9662   -2.4787 H   0  0  0  0  0
   15.3318  -15.7754   -1.1674 H   0  0  0  0  0
   14.7157  -17.9399   -1.9419 H   0  0  0  0  0
   13.3408  -17.0070   -2.4433 H   0  0  0  0  0
   14.7762  -18.4570   -4.2764 H   0  0  0  0  0
   14.0123  -16.9979   -4.7344 H   0  0  0  0  0
   20.8174  -16.0356   -1.8048 H   0  0  0  0  0
   20.6231  -14.8383   -0.5011 H   0  0  0  0  0
   21.3703  -16.4173   -0.1557 H   0  0  0  0  0
   19.2391  -17.5520   -0.6508 H   0  0  0  0  0
   17.8902  -14.8494   -0.9908 H   0  0  0  0  0
   18.6853  -15.1988    1.2463 H   0  0  0  0  0
   19.7407  -16.5796    1.6883 H   0  0  0  0  0
   18.7287  -18.5516    2.4269 H   0  0  0  0  0
   16.4163  -19.8062    1.5989 H   0  0  0  0  0
   18.4924  -20.7109    2.8173 H   0  0  0  0  0
   16.9009  -21.3901    3.3048 H   0  0  0  0  0
   18.2281  -20.8256    5.1095 H   0  0  0  0  0
   14.4568  -19.6309    2.2689 H   0  0  0  0  0
  2  1  1  0  0  0
  2  5  1  0  0  0
  3  2  1  0  0  0
  3  4  2  0  0  0
  7  6  1  0  0  0
  7 10  1  0  0  0
  8  7  1  0  0  0
  8  9  2  0  0  0
 10 11  1  0  0  0
 11 12  4  0  0  0
 11 13  4  0  0  0
 13 15  4  0  0  0
 15 14  4  0  0  0
 12 14  4  0  0  0
  6  3  1  0  0  0
 17 16  1  0  0  0
 17 18  1  0  0  0
 20 17  1  0  0  0
 18 19  1  0  0  0
 19 22  1  0  0  0
 20 21  2  0  0  0
 22 23  1  0  0  0
 22 24  2  0  0  0
 22 25  1  0  0  0
 16  8  1  0  0  0
 27 26  1  0  0  0
 27 30  1  0  0  0
 28 27  1  0  0  0
 28 29  2  0  0  0
 30 31  1  0  0  0
 26 20  1  0  0  0
 34 33  1  0  0  0
 33 36  1  0  0  0
 33 32  1  0  0  0
 32 38  1  0  0  0
 38 37  1  0  0  0
 36 37  1  0  0  0
 34 35  2  0  0  0
 32 28  1  0  0  0
 40 39  1  0  0  0
 40 41  1  0  0  0
 42 40  1  0  0  0
 43 42  1  0  0  0
 43 44  2  0  0  0
 41 34  1  0  0  0
 45 46  1  0  0  0
 46 49  1  0  0  0
 46 47  1  0  0  0
 47 48  2  0  0  0
 47 51  1  0  0  0
 49 50  1  0  0  0
 43 45  1  0  0  0
  1 52  1  0  0  0
  1 53  1  0  0  0
  1 54  1  0  0  0
  2 55  1  0  0  0
  5 56  1  0  0  0
  5 57  1  0  0  0
  5 58  1  0  0  0
  6 59  1  0  0  0
  7 60  1  0  0  0
 10 61  1  0  0  0
 10 62  1  0  0  0
 13 63  1  0  0  0
 14 64  1  0  0  0
 16 65  1  0  0  0
 17 66  1  0  0  0
 18 67  1  0  0  0
 18 68  1  0  0  0
 23 69  1  0  0  0
 25 70  1  0  0  0
 26 71  1  0  0  0
 27 72  1  0  0  0
 30 73  1  0  0  0
 30 74  1  0  0  0
 31 75  1  0  0  0
 33 76  1  0  0  0
 36 77  1  0  0  0
 36 78  1  0  0  0
 37 79  1  0  0  0
 37 80  1  0  0  0
 38 81  1  0  0  0
 38 82  1  0  0  0
 39 83  1  0  0  0
 39 84  1  0  0  0
 39 85  1  0  0  0
 40 86  1  0  0  0
 41 87  1  0  0  0
 42 88  1  0  0  0
 42 89  1  0  0  0
 45 90  1  0  0  0
 46 91  1  0  0  0
 49 92  1  0  0  0
 49 93  1  0  0  0
 50 94  1  0  0  0
 51 95  1  0  0  0
M  END
$$$$
