6hq7_ligand
  -I-interpret- 

 34 37  0  0  0  0  0  0  0  0999 V2000
   16.7900   39.4080    9.7940 P   0  0  0  0  0
   18.0180   39.7020   10.6260 O   0  0  0  0  0
   15.4930   39.2390   10.5370 O   0  0  0  0  0
   16.6570   40.6030    8.6950 O   0  0  0  0  0
   17.5670   40.7020    7.5800 C   0  0  0  0  0
   17.5980   39.3490    6.8820 C   0  0  0  0  0
   18.4640   39.1880    5.7510 O   0  0  0  0  0
   18.0730   38.3010    7.8600 C   0  0  0  0  0
   17.0600   38.1320    8.8460 O   0  0  0  0  0
   18.3720   37.1400    6.9490 C   0  0  0  0  0
   17.1840   36.3780    6.7790 O   0  0  0  0  0
   18.7490   37.7810    5.6200 C   0  0  0  0  0
   20.1780   37.6750    5.2320 N   0  0  0  0  0
   20.6330   37.1880    4.0610 C   0  0  0  0  0
   21.9840   37.2790    3.9950 N   0  0  0  0  0
   22.3900   37.8450    5.1440 C   0  0  0  0  0
   23.6880   38.2500    5.7280 C   0  0  0  0  0
   24.7320   38.0520    5.0890 O   0  0  0  0  0
   23.7060   38.8240    6.9320 N   0  0  0  0  0
   22.5680   39.0450    7.6270 C   0  0  0  0  0
   22.6430   39.6120    8.8450 N   0  0  0  0  0
   21.3450   38.7080    7.1560 N   0  0  0  0  0
   21.2050   38.1100    5.9490 C   0  0  0  0  0
   18.7805   39.7892   10.0493 H   0  0  0  0  0
   18.5642   40.9707    7.9285 H   0  0  0  0  0
   17.2351   41.4766    6.8887 H   0  0  0  0  0
   16.5740   39.2553    6.5206 H   0  0  0  0  0
   18.9588   38.5106    8.4596 H   0  0  0  0  0
   19.1551   36.4871    7.3345 H   0  0  0  0  0
   17.3626   35.6340    6.1992 H   0  0  0  0  0
   18.1836   37.2523    4.8526 H   0  0  0  0  0
   20.0009   36.7768    3.2739 H   0  0  0  0  0
   23.5507   39.8693    9.2328 H   0  0  0  0  0
   20.5172   38.9071    7.7178 H   0  0  0  0  0
  1  2  1  0  0  0
  1  3  2  0  0  0
  1  4  1  0  0  0
  1  9  1  0  0  0
  4  5  1  0  0  0
  5  6  1  0  0  0
  6  7  1  0  0  0
  6  8  1  0  0  0
  7 12  1  0  0  0
  8  9  1  0  0  0
  8 10  1  0  0  0
 10 11  1  0  0  0
 10 12  1  0  0  0
 12 13  1  0  0  0
 13 14  4  0  0  0
 13 23  4  0  0  0
 14 15  4  0  0  0
 15 16  4  0  0  0
 16 17  1  0  0  0
 16 23  4  0  0  0
 17 18  2  0  0  0
 17 19  1  0  0  0
 19 20  4  0  0  0
 20 21  2  0  0  0
 20 22  1  0  0  0
 22 23  1  0  0  0
  2 24  1  0  0  0
  5 25  1  0  0  0
  5 26  1  0  0  0
  6 27  1  0  0  0
  8 28  1  0  0  0
 10 29  1  0  0  0
 11 30  1  0  0  0
 12 31  1  0  0  0
 14 32  1  0  0  0
 21 33  1  0  0  0
 22 34  1  0  0  0
M  END
$$$$
