6ia7_ligand
  -I-interpret- 

 47 49  0  0  0  0  0  0  0  0999 V2000
  -21.4020  -12.7890  -12.6710 P   0  0  0  0  0
  -21.6540  -13.4620  -14.0090 O   0  0  0  0  0
  -20.3910  -13.5750  -11.8740 O   0  0  0  0  0
  -22.6800  -12.6660  -11.8590 O   0  0  0  0  0
  -20.7650  -11.3340  -12.9100 O   0  0  0  0  0
  -20.8620  -10.4940  -14.2840 P   0  0  0  0  0
  -21.1140  -11.3520  -15.5030 O   0  0  0  0  0
  -19.5400   -9.7870  -14.4060 O   0  0  0  0  0
  -22.0050   -9.3770  -14.0570 O   0  0  0  0  0
  -23.0520   -9.0250  -15.2220 P   0  0  0  0  0
  -22.3390   -8.9320  -16.5370 O   0  0  0  0  0
  -24.1450  -10.0710  -15.2730 O   0  0  0  0  0
  -23.6450   -7.5860  -14.8330 O   0  0  0  0  0
  -24.9660   -7.3120  -15.2320 C   0  0  0  0  0
  -25.6560   -6.6130  -14.0730 C   0  0  0  0  0
  -24.7560   -5.6360  -13.6110 O   0  0  0  0  0
  -26.9380   -5.9310  -14.5180 C   0  0  0  0  0
  -28.0260   -6.3590  -13.7310 O   0  0  0  0  0
  -26.7190   -4.4610  -14.2670 C   0  0  0  0  0
  -27.6220   -3.9850  -13.2960 O   0  0  0  0  0
  -25.2860   -4.3400  -13.7730 C   0  0  0  0  0
  -24.5300   -3.6660  -14.8340 N   0  0  0  0  0
  -23.4500   -4.1580  -15.5180 C   0  0  0  0  0
  -23.0620   -3.2190  -16.4050 N   0  0  0  0  0
  -23.8640   -2.1330  -16.2860 C   0  0  0  0  0
  -23.9140   -0.9010  -16.9330 C   0  0  0  0  0
  -23.1040   -0.6220  -17.8140 O   0  0  0  0  0
  -24.8830    0.0230  -16.5880 N   0  0  0  0  0
  -25.8000   -0.2650  -15.6020 C   0  0  0  0  0
  -26.7300    0.6250  -15.2660 N   0  0  0  0  0
  -25.7420   -1.4860  -14.9680 N   0  0  0  0  0
  -24.7970   -2.4040  -15.3020 C   0  0  0  0  0
  -22.2984  -12.9526  -14.5058 H   0  0  0  0  0
  -23.3291  -12.1666  -12.3598 H   0  0  0  0  0
  -21.9600  -11.7963  -15.4109 H   0  0  0  0  0
  -24.5866  -10.1125  -14.4216 H   0  0  0  0  0
  -25.4872   -8.2350  -15.4859 H   0  0  0  0  0
  -24.9732   -6.6782  -16.1188 H   0  0  0  0  0
  -25.9208   -7.3371  -13.3025 H   0  0  0  0  0
  -27.1606   -6.1589  -15.5604 H   0  0  0  0  0
  -28.8261   -5.9182  -14.0263 H   0  0  0  0  0
  -26.8848   -3.8687  -15.1669 H   0  0  0  0  0
  -27.4682   -3.0488  -13.1492 H   0  0  0  0  0
  -25.2345   -3.7951  -12.8304 H   0  0  0  0  0
  -22.9870   -5.1339  -15.3716 H   0  0  0  0  0
  -26.7670    1.5276  -15.7397 H   0  0  0  0  0
  -26.4185   -1.7048  -14.2366 H   0  0  0  0  0
  1  2  1  0  0  0
  1  3  2  0  0  0
  1  4  1  0  0  0
  1  5  1  0  0  0
  5  6  1  0  0  0
  6  7  1  0  0  0
  6  8  2  0  0  0
  6  9  1  0  0  0
  9 10  1  0  0  0
 10 11  2  0  0  0
 10 12  1  0  0  0
 10 13  1  0  0  0
 13 14  1  0  0  0
 14 15  1  0  0  0
 15 16  1  0  0  0
 15 17  1  0  0  0
 16 21  1  0  0  0
 17 18  1  0  0  0
 17 19  1  0  0  0
 19 20  1  0  0  0
 19 21  1  0  0  0
 21 22  1  0  0  0
 22 23  4  0  0  0
 22 32  4  0  0  0
 23 24  4  0  0  0
 24 25  4  0  0  0
 25 26  1  0  0  0
 25 32  4  0  0  0
 26 27  2  0  0  0
 26 28  1  0  0  0
 28 29  4  0  0  0
 29 30  2  0  0  0
 29 31  1  0  0  0
 31 32  1  0  0  0
  2 33  1  0  0  0
  4 34  1  0  0  0
  7 35  1  0  0  0
 12 36  1  0  0  0
 14 37  1  0  0  0
 14 38  1  0  0  0
 15 39  1  0  0  0
 17 40  1  0  0  0
 18 41  1  0  0  0
 19 42  1  0  0  0
 20 43  1  0  0  0
 21 44  1  0  0  0
 23 45  1  0  0  0
 30 46  1  0  0  0
 31 47  1  0  0  0
M  END
$$$$
