6jfk_ligand
  -I-interpret- 

 42 44  0  0  0  0  0  0  0  0999 V2000
  -30.5550   15.4140    8.9340 P   0  0  0  0  0
  -29.5260   14.8340    8.0020 O   0  0  0  0  0
  -30.2330   15.1160   10.4060 O   0  0  0  0  0
  -30.6970   16.9040    8.7370 O   0  0  0  0  0
  -31.9260   14.6590    8.5260 O   0  0  0  0  0
  -32.9830   13.8870    9.4610 P   0  0  0  0  0
  -32.4750   12.5830   10.0190 O   0  0  0  0  0
  -33.5980   14.8290   10.4400 O   0  0  0  0  0
  -34.1010   13.5260    8.3520 O   0  0  0  0  0
  -34.7700   14.5750    7.6250 C   0  0  0  0  0
  -36.1280   14.0900    7.1250 C   0  0  0  0  0
  -35.8810   12.9920    6.2530 O   0  0  0  0  0
  -36.9650   13.5610    8.2670 C   0  0  0  0  0
  -38.3450   13.8570    8.0380 O   0  0  0  0  0
  -36.7350   12.0620    8.2250 C   0  0  0  0  0
  -37.8120   11.3450    8.8270 O   0  0  0  0  0
  -36.5460   11.8230    6.7400 C   0  0  0  0  0
  -35.6680   10.6590    6.4860 N   0  0  0  0  0
  -34.5130   10.3530    7.1140 C   0  0  0  0  0
  -33.9680    9.2190    6.6090 N   0  0  0  0  0
  -34.7920    8.7930    5.6370 C   0  0  0  0  0
  -34.8390    7.6570    4.7010 C   0  0  0  0  0
  -33.9530    6.7810    4.7030 O   0  0  0  0  0
  -35.8840    7.5910    3.8460 N   0  0  0  0  0
  -36.8730    8.4990    3.8120 C   0  0  0  0  0
  -37.8890    8.3360    2.9110 N   0  0  0  0  0
  -36.9010    9.5570    4.6530 N   0  0  0  0  0
  -35.9050    9.7460    5.5570 C   0  0  0  0  0
  -30.9112   15.5019   10.9652 H   0  0  0  0  0
  -31.3586   17.2443    9.3438 H   0  0  0  0  0
  -32.1018   12.0560    9.3087 H   0  0  0  0  0
  -34.1577   14.8618    6.7701 H   0  0  0  0  0
  -34.9185   15.4280    8.2871 H   0  0  0  0  0
  -36.6512   14.9151    6.6417 H   0  0  0  0  0
  -36.7002   14.0004    9.2287 H   0  0  0  0  0
  -38.8691   13.5179    8.7673 H   0  0  0  0  0
  -35.8828   11.7044    8.8029 H   0  0  0  0  0
  -37.6324   10.4030    8.7822 H   0  0  0  0  0
  -37.5051   11.6294    6.2597 H   0  0  0  0  0
  -34.0758   10.9406    7.9213 H   0  0  0  0  0
  -37.8870    7.5350    2.2795 H   0  0  0  0  0
  -37.6761   10.2185    4.6084 H   0  0  0  0  0
  1  2  2  0  0  0
  1  3  1  0  0  0
  1  4  1  0  0  0
  1  5  1  0  0  0
  5  6  1  0  0  0
  6  7  1  0  0  0
  6  8  2  0  0  0
  6  9  1  0  0  0
  9 10  1  0  0  0
 10 11  1  0  0  0
 11 12  1  0  0  0
 11 13  1  0  0  0
 12 17  1  0  0  0
 13 14  1  0  0  0
 13 15  1  0  0  0
 15 16  1  0  0  0
 15 17  1  0  0  0
 17 18  1  0  0  0
 18 19  4  0  0  0
 18 28  4  0  0  0
 19 20  4  0  0  0
 20 21  4  0  0  0
 21 22  1  0  0  0
 21 28  4  0  0  0
 22 23  2  0  0  0
 22 24  1  0  0  0
 24 25  4  0  0  0
 25 26  2  0  0  0
 25 27  1  0  0  0
 27 28  1  0  0  0
  3 29  1  0  0  0
  4 30  1  0  0  0
  7 31  1  0  0  0
 10 32  1  0  0  0
 10 33  1  0  0  0
 11 34  1  0  0  0
 13 35  1  0  0  0
 14 36  1  0  0  0
 15 37  1  0  0  0
 16 38  1  0  0  0
 17 39  1  0  0  0
 19 40  1  0  0  0
 26 41  1  0  0  0
 27 42  1  0  0  0
M  END
$$$$
