6mtu_ligand
  -I-interpret- 

127128  0  0  0  0  0  0  0  0999 V2000
   30.6870  -13.3410   22.6840 N   0  3  0  0  0
   29.5560  -12.8870   21.8680 C   0  0  0  0  0
   28.3640  -13.8360   21.8890 C   0  0  0  0  0
   28.4070  -14.8650   22.5590 O   0  0  0  0  0
   30.1670  -12.7940   20.4710 C   0  0  0  0  0
   31.5820  -12.3620   20.7420 C   0  0  0  0  0
   31.9820  -13.0050   22.0600 C   0  0  0  0  0
   27.3230  -13.4880   21.1370 N   0  0  0  0  0
   25.9940  -14.0680   21.3180 C   0  0  0  0  0
   25.8990  -15.4080   20.5990 C   0  0  0  0  0
   25.7220  -15.4670   19.3800 O   0  0  0  0  0
   24.9310  -13.0950   20.8120 C   0  0  0  0  0
   25.2620  -11.6550   21.0610 C   0  0  0  0  0
   25.2070  -10.6950   20.0720 N   0  0  0  0  0
   25.6570  -11.0110   22.1850 C   0  0  0  0  0
   25.5520   -9.5240   20.5770 C   0  0  0  0  0
   25.8290   -9.6880   21.8580 N   0  0  0  0  0
   26.0100  -16.4950   21.3640 N   0  0  0  0  0
   25.7330  -17.8460   20.8800 C   0  0  0  0  0
   24.5970  -18.4170   21.7200 C   0  0  0  0  0
   24.7690  -18.6570   22.9200 O   0  0  0  0  0
   26.9650  -18.7420   20.9640 C   0  0  0  0  0
   27.9280  -18.3350   19.9860 O   0  0  0  0  0
   26.5780  -20.1970   20.7210 C   0  0  0  0  0
   23.4480  -18.6440   21.0890 N   0  0  0  0  0
   22.2450  -19.0940   21.7720 C   0  0  0  0  0
   21.9840  -20.5670   21.4870 C   0  0  0  0  0
   22.2880  -21.0730   20.4030 O   0  0  0  0  0
   21.0270  -18.2720   21.3380 C   0  0  0  0  0
   20.8560  -17.0070   22.1510 C   0  0  0  0  0
   20.8940  -17.0350   23.3800 O   0  0  0  0  0
   20.6640  -15.8860   21.4670 N   0  0  0  0  0
   21.3980  -21.2470   22.4700 N   0  0  0  0  0
   21.0610  -22.6580   22.3250 C   0  0  0  0  0
   20.0440  -23.0130   23.3970 C   0  0  0  0  0
   20.2250  -22.6560   24.5650 O   0  0  0  0  0
   22.3110  -23.5350   22.4440 C   0  0  0  0  0
   22.1910  -24.8970   21.7780 C   0  0  0  0  0
   23.5450  -25.5170   21.4870 C   0  0  0  0  0
   24.3390  -24.8930   20.7510 O   0  0  0  0  0
   23.8200  -26.6210   22.0020 O   0  0  0  0  0
   18.9830  -23.7060   22.9990 N   0  0  0  0  0
   17.9040  -24.0350   23.9190 C   0  0  0  0  0
   17.3160  -25.4120   23.6370 C   0  0  0  0  0
   16.8160  -25.6660   22.5440 O   0  0  0  0  0
   16.7780  -22.9860   23.8350 C   0  0  0  0  0
   17.3310  -21.6760   24.0100 O   0  0  0  0  0
   15.7220  -23.2390   24.8960 C   0  0  0  0  0
   17.3800  -26.3010   24.6230 N   0  0  0  0  0
   16.7200  -27.5980   24.5150 C   0  0  0  0  0
   17.0560  -28.4910   25.7050 C   0  0  0  0  0
   18.2170  -29.2580   25.4490 O   0  0  0  0  0
   15.2150  -27.3920   24.4270 C   0  0  0  0  0
   14.7010  -26.3790   24.8920 O   0  0  0  0  0
   18.3150  -30.4570   26.5180 P   0  0  0  0  0
   18.2670  -31.8670   25.7440 O   0  0  0  0  0
   17.0890  -30.3830   27.5600 O   0  0  0  0  0
   19.6990  -30.3270   27.3290 O   0  0  0  0  0
   14.5120  -28.3500   23.8360 N   0  0  0  0  0
   13.0630  -28.2510   23.6930 C   0  0  0  0  0
   12.4080  -29.6240   23.7560 C   0  0  0  0  0
   13.0580  -30.6520   23.5670 O   0  0  0  0  0
   12.7030  -27.5600   22.3760 C   0  0  0  0  0
   12.9810  -26.0580   22.3020 C   0  0  0  0  0
   13.1120  -25.6090   20.8580 C   0  0  0  0  0
   11.8840  -25.2730   23.0020 C   0  0  0  0  0
   11.2060  -29.7370   23.9960 O   0  0  0  0  0
   30.6291  -14.3551   22.7768 H   0  0  0  0  0
   30.6367  -12.8748   23.5898 H   0  0  0  0  0
   29.1382  -11.9507   22.2380 H   0  0  0  0  0
   29.6321  -12.0989   19.8238 H   0  0  0  0  0
   30.1125  -13.7358   19.9250 H   0  0  0  0  0
   31.6554  -11.2759   20.7985 H   0  0  0  0  0
   32.2472  -12.6739   19.9368 H   0  0  0  0  0
   32.6198  -13.8783   21.9232 H   0  0  0  0  0
   32.5872  -12.3447   22.6812 H   0  0  0  0  0
   27.4578  -12.7895   20.4060 H   0  0  0  0  0
   25.8209  -14.2449   22.3795 H   0  0  0  0  0
   24.0079  -13.3139   21.3488 H   0  0  0  0  0
   24.8547  -13.2292   19.7330 H   0  0  0  0  0
   25.8100  -11.4592   23.1667 H   0  0  0  0  0
   25.5999   -8.5826   20.0296 H   0  0  0  0  0
   26.3025  -16.3777   22.3341 H   0  0  0  0  0
   25.4507  -17.8038   19.8280 H   0  0  0  0  0
   27.3965  -18.6504   21.9607 H   0  0  0  0  0
   28.7004  -18.9022   20.0438 H   0  0  0  0  0
   25.8567  -20.5107   21.4756 H   0  0  0  0  0
   26.1341  -20.2929   19.7301 H   0  0  0  0  0
   27.4676  -20.8237   20.7842 H   0  0  0  0  0
   23.4088  -18.4958   20.0806 H   0  0  0  0  0
   22.4036  -18.9558   22.8415 H   0  0  0  0  0
   20.1389  -18.8867   21.4848 H   0  0  0  0  0
   21.1717  -17.9836   20.2969 H   0  0  0  0  0
   20.5409  -15.0020   21.9608 H   0  0  0  0  0
   20.6395  -15.9084   20.4475 H   0  0  0  0  0
   21.1798  -20.7699   23.3447 H   0  0  0  0  0
   20.6377  -22.8389   21.3370 H   0  0  0  0  0
   22.4762  -23.7128   23.5066 H   0  0  0  0  0
   23.1214  -23.0052   21.9434 H   0  0  0  0  0
   21.6687  -24.7652   20.8304 H   0  0  0  0  0
   21.6546  -25.5595   22.4573 H   0  0  0  0  0
   23.9305  -24.0730   20.4642 H   0  0  0  0  0
   18.9231  -24.0140   22.0285 H   0  0  0  0  0
   18.3350  -24.0383   24.9201 H   0  0  0  0  0
   16.3067  -23.0611   22.8550 H   0  0  0  0  0
   16.6286  -21.0237   23.9574 H   0  0  0  0  0
   15.2910  -24.2293   24.7489 H   0  0  0  0  0
   16.1803  -23.1838   25.8834 H   0  0  0  0  0
   14.9392  -22.4849   24.8147 H   0  0  0  0  0
   17.8998  -26.0726   25.4704 H   0  0  0  0  0
   17.0784  -28.0947   23.6134 H   0  0  0  0  0
   16.2205  -29.1683   25.8818 H   0  0  0  0  0
   17.2372  -27.8610   26.5758 H   0  0  0  0  0
   17.1148  -29.5427   28.0236 H   0  0  0  0  0
   19.7215  -29.4843   27.7883 H   0  0  0  0  0
   14.9945  -29.1726   23.4742 H   0  0  0  0  0
   12.6859  -27.6544   24.5237 H   0  0  0  0  0
   11.6258  -27.6759   22.2565 H   0  0  0  0  0
   13.3256  -28.0224   21.6101 H   0  0  0  0  0
   13.9240  -25.8621   22.8124 H   0  0  0  0  0
   13.9354  -26.1447   20.3856 H   0  0  0  0  0
   12.1848  -25.8236   20.3266 H   0  0  0  0  0
   13.3095  -24.5375   20.8285 H   0  0  0  0  0
   10.9280  -25.4789   22.5207 H   0  0  0  0  0
   11.8368  -25.5718   24.0492 H   0  0  0  0  0
   12.1032  -24.2073   22.9364 H   0  0  0  0  0
   10.8227  -28.8659   24.1219 H   0  0  0  0  0
  1  2  1  0  0  0
  1  7  1  0  0  0
  2  3  1  0  0  0
  2  5  1  0  0  0
  3  4  2  0  0  0
  3  8  1  0  0  0
  5  6  1  0  0  0
  6  7  1  0  0  0
  8  9  1  0  0  0
  9 10  1  0  0  0
  9 12  1  0  0  0
 10 11  2  0  0  0
 10 18  1  0  0  0
 12 13  1  0  0  0
 13 14  4  0  0  0
 13 15  4  0  0  0
 14 16  4  0  0  0
 15 17  4  0  0  0
 16 17  4  0  0  0
 18 19  1  0  0  0
 19 20  1  0  0  0
 19 22  1  0  0  0
 20 21  2  0  0  0
 20 25  1  0  0  0
 22 23  1  0  0  0
 22 24  1  0  0  0
 25 26  1  0  0  0
 26 27  1  0  0  0
 26 29  1  0  0  0
 27 28  2  0  0  0
 27 33  1  0  0  0
 29 30  1  0  0  0
 30 31  2  0  0  0
 30 32  1  0  0  0
 33 34  1  0  0  0
 34 35  1  0  0  0
 34 37  1  0  0  0
 35 36  2  0  0  0
 35 42  1  0  0  0
 37 38  1  0  0  0
 38 39  1  0  0  0
 39 40  1  0  0  0
 39 41  2  0  0  0
 42 43  1  0  0  0
 43 44  1  0  0  0
 43 46  1  0  0  0
 44 45  2  0  0  0
 44 49  1  0  0  0
 46 47  1  0  0  0
 46 48  1  0  0  0
 49 50  1  0  0  0
 50 51  1  0  0  0
 50 53  1  0  0  0
 51 52  1  0  0  0
 52 55  1  0  0  0
 53 54  2  0  0  0
 53 59  1  0  0  0
 55 56  2  0  0  0
 55 57  1  0  0  0
 55 58  1  0  0  0
 59 60  1  0  0  0
 60 61  1  0  0  0
 60 63  1  0  0  0
 61 62  2  0  0  0
 61 67  1  0  0  0
 63 64  1  0  0  0
 64 65  1  0  0  0
 64 66  1  0  0  0
  1 68  1  0  0  0
  1 69  1  0  0  0
  2 70  1  0  0  0
  5 71  1  0  0  0
  5 72  1  0  0  0
  6 73  1  0  0  0
  6 74  1  0  0  0
  7 75  1  0  0  0
  7 76  1  0  0  0
  8 77  1  0  0  0
  9 78  1  0  0  0
 12 79  1  0  0  0
 12 80  1  0  0  0
 15 81  1  0  0  0
 16 82  1  0  0  0
 18 83  1  0  0  0
 19 84  1  0  0  0
 22 85  1  0  0  0
 23 86  1  0  0  0
 24 87  1  0  0  0
 24 88  1  0  0  0
 24 89  1  0  0  0
 25 90  1  0  0  0
 26 91  1  0  0  0
 29 92  1  0  0  0
 29 93  1  0  0  0
 32 94  1  0  0  0
 32 95  1  0  0  0
 33 96  1  0  0  0
 34 97  1  0  0  0
 37 98  1  0  0  0
 37 99  1  0  0  0
 38100  1  0  0  0
 38101  1  0  0  0
 40102  1  0  0  0
 42103  1  0  0  0
 43104  1  0  0  0
 46105  1  0  0  0
 47106  1  0  0  0
 48107  1  0  0  0
 48108  1  0  0  0
 48109  1  0  0  0
 49110  1  0  0  0
 50111  1  0  0  0
 51112  1  0  0  0
 51113  1  0  0  0
 57114  1  0  0  0
 58115  1  0  0  0
 59116  1  0  0  0
 60117  1  0  0  0
 63118  1  0  0  0
 63119  1  0  0  0
 64120  1  0  0  0
 65121  1  0  0  0
 65122  1  0  0  0
 65123  1  0  0  0
 66124  1  0  0  0
 66125  1  0  0  0
 66126  1  0  0  0
 67127  1  0  0  0
M  END
$$$$
