6mxc_ligand
  -I-interpret- 

 37 39  0  0  0  0  0  0  0  0999 V2000
   -8.1230    4.5030  -55.8560 P   0  0  0  0  0
   -9.4200    4.6300  -56.6390 O   0  0  0  0  0
   -7.5090    5.8330  -55.4780 O   0  0  0  0  0
   -7.1640    3.5400  -56.4960 O   0  0  0  0  0
   -8.6810    3.9990  -54.4730 O   0  0  0  0  0
   -8.0230    3.0410  -53.7100 C   0  0  0  0  0
   -8.7010    2.8640  -52.3770 C   0  0  0  0  0
  -10.1520    2.8140  -52.5300 O   0  0  0  0  0
   -8.3400    1.5510  -51.7180 C   0  0  0  0  0
   -7.1490    1.6580  -50.9920 O   0  0  0  0  0
   -9.5720    1.2120  -50.9030 C   0  0  0  0  0
   -9.6490    1.9860  -49.7260 O   0  0  0  0  0
  -10.6640    1.7120  -51.8160 C   0  0  0  0  0
  -11.0930    0.6840  -52.7660 N   0  0  0  0  0
  -10.9610    0.7040  -54.0910 C   0  0  0  0  0
  -11.5990   -0.3930  -54.5730 N   0  0  0  0  0
  -12.1240   -1.0760  -53.5290 C   0  0  0  0  0
  -12.8810   -2.2490  -53.3840 C   0  0  0  0  0
  -13.1970   -2.9400  -54.3910 O   0  0  0  0  0
  -13.2590   -2.6360  -52.1540 N   0  0  0  0  0
  -12.9430   -1.9370  -51.0580 C   0  0  0  0  0
  -13.3240   -2.3690  -49.8200 N   0  0  0  0  0
  -12.2070   -0.8020  -51.1840 N   0  0  0  0  0
  -11.8130   -0.3660  -52.4020 C   0  0  0  0  0
  -10.0005    5.2529  -56.1956 H   0  0  0  0  0
   -8.1793    6.3912  -55.0772 H   0  0  0  0  0
   -6.9968    3.3680  -53.5426 H   0  0  0  0  0
   -8.0426    2.0910  -54.2441 H   0  0  0  0  0
   -8.3711    3.7125  -51.7776 H   0  0  0  0  0
   -8.1156    0.7430  -52.4143 H   0  0  0  0  0
   -6.9458    0.8120  -50.5862 H   0  0  0  0  0
   -9.6048    0.1627  -50.6096 H   0  0  0  0  0
  -10.4391    1.7449  -49.2369 H   0  0  0  0  0
  -11.5309    1.9868  -51.2152 H   0  0  0  0  0
  -10.4388    1.4593  -54.6782 H   0  0  0  0  0
  -13.8559   -3.2339  -49.7230 H   0  0  0  0  0
  -11.9488   -0.2730  -50.3510 H   0  0  0  0  0
  1  2  1  0  0  0
  1  3  1  0  0  0
  1  4  2  0  0  0
  1  5  1  0  0  0
  5  6  1  0  0  0
  6  7  1  0  0  0
  7  8  1  0  0  0
  7  9  1  0  0  0
  8 13  1  0  0  0
  9 10  1  0  0  0
  9 11  1  0  0  0
 11 12  1  0  0  0
 11 13  1  0  0  0
 13 14  1  0  0  0
 14 15  4  0  0  0
 14 24  4  0  0  0
 15 16  4  0  0  0
 16 17  4  0  0  0
 17 18  1  0  0  0
 17 24  4  0  0  0
 18 19  2  0  0  0
 18 20  1  0  0  0
 20 21  4  0  0  0
 21 22  2  0  0  0
 21 23  1  0  0  0
 23 24  1  0  0  0
  2 25  1  0  0  0
  3 26  1  0  0  0
  6 27  1  0  0  0
  6 28  1  0  0  0
  7 29  1  0  0  0
  9 30  1  0  0  0
 10 31  1  0  0  0
 11 32  1  0  0  0
 12 33  1  0  0  0
 13 34  1  0  0  0
 15 35  1  0  0  0
 22 36  1  0  0  0
 23 37  1  0  0  0
M  END
$$$$
