6oh2_ligand
  -I-interpret- 

 34 35  0  0  0  0  0  0  0  0999 V2000
   15.8720  -16.4120    8.6770 O   0  0  0  0  0
   14.6060  -15.6450    8.9990 P   0  0  0  0  0
   13.9310  -14.9020    7.8590 O   0  0  0  0  0
   13.6410  -16.3850    9.8850 O   0  0  0  0  0
   15.1550  -14.4790    9.9460 O   0  0  0  0  0
   15.9460  -13.4550    9.3800 C   0  0  0  0  0
   16.3430  -12.5110   10.4890 C   0  0  0  0  0
   17.6480  -12.0380   10.1870 O   0  0  0  0  0
   15.4500  -11.2860   10.5850 C   0  0  0  0  0
   15.3010  -10.9490   11.9680 O   0  0  0  0  0
   16.2130  -10.2140    9.8310 C   0  0  0  0  0
   15.9480   -8.9050   10.3290 O   0  0  0  0  0
   17.6440  -10.6110   10.1020 C   0  0  0  0  0
   18.6300  -10.2170    9.0920 N   0  0  0  0  0
   19.5910   -9.2250    9.4000 C   0  0  0  0  0
   20.5180   -8.8770    8.4920 N   0  0  0  0  0
   20.5540   -9.4710    7.2850 C   0  0  0  0  0
   19.6280  -10.4640    6.9560 C   0  0  0  0  0
   18.6650  -10.8290    7.8920 C   0  0  0  0  0
   19.6000   -8.6410   10.4990 O   0  0  0  0  0
   21.4980   -9.0900    6.4030 N   0  0  0  0  0
   16.4336  -15.8773    8.1111 H   0  0  0  0  0
   14.5965  -14.4526    7.3330 H   0  0  0  0  0
   15.3830  -12.9224    8.6135 H   0  0  0  0  0
   16.8328  -13.8790    8.9088 H   0  0  0  0  0
   16.2709  -13.0577   11.4292 H   0  0  0  0  0
   14.4500  -11.4237   10.1737 H   0  0  0  0  0
   14.7384  -10.1753   12.0489 H   0  0  0  0  0
   15.9466  -10.1610    8.7754 H   0  0  0  0  0
   16.4512   -8.2632    9.8226 H   0  0  0  0  0
   17.9491  -10.0885   11.0087 H   0  0  0  0  0
   19.6594  -10.9465    5.9791 H   0  0  0  0  0
   17.9406  -11.6082    7.6550 H   0  0  0  0  0
   22.1683   -8.3638    6.6553 H   0  0  0  0  0
  1  2  1  0  0  0
  2  3  1  0  0  0
  2  4  2  0  0  0
  2  5  1  0  0  0
  5  6  1  0  0  0
  6  7  1  0  0  0
  7  8  1  0  0  0
  7  9  1  0  0  0
  8 13  1  0  0  0
  9 10  1  0  0  0
  9 11  1  0  0  0
 11 12  1  0  0  0
 11 13  1  0  0  0
 13 14  1  0  0  0
 14 15  1  0  0  0
 14 19  1  0  0  0
 15 16  1  0  0  0
 15 20  2  0  0  0
 16 17  4  0  0  0
 17 18  1  0  0  0
 17 21  2  0  0  0
 18 19  2  0  0  0
  1 22  1  0  0  0
  3 23  1  0  0  0
  6 24  1  0  0  0
  6 25  1  0  0  0
  7 26  1  0  0  0
  9 27  1  0  0  0
 10 28  1  0  0  0
 11 29  1  0  0  0
 12 30  1  0  0  0
 13 31  1  0  0  0
 18 32  1  0  0  0
 19 33  1  0  0  0
 21 34  1  0  0  0
M  END
$$$$
