6pk7_ligand
  -I-interpret- 

 44 45  0  0  0  0  0  0  0  0999 V2000
  144.1550  160.8220  148.5770 N   0  0  0  0  0
  144.8280  160.8630  149.8150 C   0  0  0  0  0
  145.9730  161.5670  149.9420 N   0  0  0  0  0
  146.4830  162.2360  148.8870 C   0  0  0  0  0
  145.8300  162.2050  147.6610 C   0  0  0  0  0
  144.6510  161.4820  147.5250 C   0  0  0  0  0
  144.3630  160.2460  150.7970 O   0  0  0  0  0
  147.6330  162.9400  149.0230 N   0  0  0  0  0
  142.9130  160.0580  148.4420 C   0  0  0  0  0
  141.7620  161.0010  148.1300 C   0  0  0  0  0
  140.7500  160.8890  149.1350 O   0  0  0  0  0
  141.2110  160.5700  146.7860 C   0  0  0  0  0
  142.0510  159.3840  146.3420 C   0  0  0  0  0
  143.0290  159.1360  147.3550 O   0  0  0  0  0
  139.8420  160.1770  146.9210 O   0  0  0  0  0
  142.7460  159.6640  145.0160 C   0  0  0  0  0
  143.9460  158.8990  144.9350 O   0  0  0  0  0
  145.0550  159.2320  143.8170 P   0  0  0  0  0
  144.4250  159.0490  142.4570 O   0  0  0  0  0
  146.3190  158.4850  144.1680 O   0  0  0  0  0
  145.3190  160.8040  144.0420 O   0  0  0  0  0
  145.4440  161.8000  142.7830 P   0  0  0  0  0
  144.1320  161.7850  142.0370 O   0  0  0  0  0
  146.0190  163.1090  143.2720 O   0  0  0  0  0
  146.5530  161.0750  141.8680 O   0  0  0  0  0
  147.4910  161.9350  140.8830 P   0  0  0  0  0
  147.8520  160.9650  139.7840 O   0  0  0  0  0
  146.6040  163.0760  140.4420 O   0  0  0  0  0
  148.6510  162.3490  141.7550 O   0  0  0  0  0
  146.2411  162.7460  146.8087 H   0  0  0  0  0
  144.1334  161.4530  146.5662 H   0  0  0  0  0
  148.1129  162.9641  149.9228 H   0  0  0  0  0
  142.7289  159.5263  149.3756 H   0  0  0  0  0
  142.0936  162.0391  148.1082 H   0  0  0  0  0
  140.0284  161.4878  148.9291 H   0  0  0  0  0
  141.2536  161.3819  146.0599 H   0  0  0  0  0
  141.4065  158.5166  146.1993 H   0  0  0  0  0
  139.5022  159.9059  146.0651 H   0  0  0  0  0
  142.9874  160.7249  144.9502 H   0  0  0  0  0
  142.0844  159.3885  144.1947 H   0  0  0  0  0
  143.6346  159.5905  142.3962 H   0  0  0  0  0
  146.8502  162.9435  143.7229 H   0  0  0  0  0
  147.0657  160.7513  139.2764 H   0  0  0  0  0
  145.8935  162.7343  139.8943 H   0  0  0  0  0
  1  2  1  0  0  0
  1  6  1  0  0  0
  1  9  1  0  0  0
  2  3  1  0  0  0
  2  7  2  0  0  0
  3  4  4  0  0  0
  4  5  1  0  0  0
  4  8  2  0  0  0
  5  6  2  0  0  0
  9 10  1  0  0  0
  9 14  1  0  0  0
 10 11  1  0  0  0
 10 12  1  0  0  0
 12 13  1  0  0  0
 12 15  1  0  0  0
 13 14  1  0  0  0
 13 16  1  0  0  0
 16 17  1  0  0  0
 17 18  1  0  0  0
 18 19  1  0  0  0
 18 20  2  0  0  0
 18 21  1  0  0  0
 21 22  1  0  0  0
 22 23  2  0  0  0
 22 24  1  0  0  0
 22 25  1  0  0  0
 25 26  1  0  0  0
 26 27  1  0  0  0
 26 28  1  0  0  0
 26 29  2  0  0  0
  5 30  1  0  0  0
  6 31  1  0  0  0
  8 32  1  0  0  0
  9 33  1  0  0  0
 10 34  1  0  0  0
 11 35  1  0  0  0
 12 36  1  0  0  0
 13 37  1  0  0  0
 15 38  1  0  0  0
 16 39  1  0  0  0
 16 40  1  0  0  0
 19 41  1  0  0  0
 24 42  1  0  0  0
 27 43  1  0  0  0
 28 44  1  0  0  0
M  END
$$$$
