6pxc_ligand
  -I-interpret- 

196198  0  0  0  0  0  0  0  0999 V2000
   46.0190   23.4950    6.1740 C   0  0  0  0  0
   47.1350   23.0020    6.0070 O   0  0  0  0  0
   44.9570   23.4250    5.1150 C   0  0  0  0  0
   45.6640   24.1200    7.2950 N   0  0  0  0  0
   46.5570   24.2970    8.4370 C   0  0  0  0  0
   47.0140   22.9680    9.0160 C   0  0  0  0  0
   46.2270   22.0280    9.1330 O   0  0  0  0  0
   45.8700   25.1210    9.5230 C   0  0  0  0  0
   46.7490   26.1980   10.1250 C   0  0  0  0  0
   45.9380   27.2900   10.7890 C   0  0  0  0  0
   45.0960   26.9610   11.6510 O   0  0  0  0  0
   46.1310   28.4750   10.4370 O   0  0  0  0  0
   48.2930   22.8960    9.3770 N   0  0  0  0  0
   48.8270   21.6790    9.9640 C   0  0  0  0  0
   48.1280   21.3880   11.2820 C   0  0  0  0  0
   47.9130   22.2820   12.1060 O   0  0  0  0  0
   50.3360   21.8100   10.1820 C   0  0  0  0  0
   51.0020   20.5560   10.7170 C   0  0  0  0  0
   52.5030   20.7280   10.9230 C   0  0  0  0  0
   53.2700   20.6470    9.9350 O   0  0  0  0  0
   52.9100   20.9540   12.0810 O   0  0  0  0  0
   47.7630   20.1310   11.4770 N   0  0  0  0  0
   47.1270   19.7570   12.7240 C   0  0  0  0  0
   48.1540   19.6730   13.8420 C   0  0  0  0  0
   49.3410   19.4210   13.6130 O   0  0  0  0  0
   46.3930   18.4250   12.5820 C   0  0  0  0  0
   45.2330   18.4920   11.6170 C   0  0  0  0  0
   44.0960   17.5810   12.0220 C   0  0  0  0  0
   43.9250   16.5240   11.3820 O   0  0  0  0  0
   43.3820   17.9200   12.9900 O   0  0  0  0  0
   47.6820   19.9000   15.0610 N   0  0  0  0  0
   48.5310   19.7240   16.2220 C   0  0  0  0  0
   48.7500   18.2420   16.4790 C   0  0  0  0  0
   47.9780   17.3900   16.0270 O   0  0  0  0  0
   47.8970   20.3860   17.4380 C   0  0  0  0  0
   47.7270   21.8720   17.2600 C   0  0  0  0  0
   48.6430   22.5540   16.8130 O   0  0  0  0  0
   46.5550   22.3760   17.5900 N   0  0  0  0  0
   49.8120   17.9410   17.2230 N   0  0  0  0  0
   50.1730   16.5630   17.5400 C   0  0  0  0  0
   49.6300   16.1710   18.9010 C   0  0  0  0  0
   49.6840   16.9550   19.8460 O   0  0  0  0  0
   51.6710   16.3920   17.4660 C   0  0  0  0  0
   52.1010   16.4520   16.0010 C   0  0  0  0  0
   52.0970   15.0690   18.1090 C   0  0  0  0  0
   53.5740   16.5640   15.8180 C   0  0  0  0  0
   49.0780   14.9660   19.0020 N   0  0  0  0  0
   48.5210   14.5080   20.2670 C   0  0  0  0  0
   49.3270   13.3410   20.8050 C   0  0  0  0  0
   49.9660   12.5760   20.0660 O   0  0  0  0  0
   47.0510   14.1030   20.0990 C   0  0  0  0  0
   46.1280   15.2620   19.8150 C   0  0  0  0  0
   46.0750   15.8380   18.5530 C   0  0  0  0  0
   45.3030   15.7870   20.8060 C   0  0  0  0  0
   45.2300   16.8980   18.2870 C   0  0  0  0  0
   44.4530   16.8470   20.5440 C   0  0  0  0  0
   44.4260   17.4090   19.2860 C   0  0  0  0  0
   43.6040   18.3840   19.0000 O   0  0  0  0  0
   43.8010   19.9410   19.3580 P   0  0  0  0  0
   44.2590   20.7170   18.1080 O   0  0  0  0  0
   42.4830   20.4500   19.7820 O   0  0  0  0  0
   44.8740   20.1580   20.4360 O   0  0  0  0  0
   49.3050   13.2060   22.1170 N   0  0  0  0  0
   50.0570   12.1710   22.7790 C   0  0  0  0  0
   49.1480   11.0190   23.1650 C   0  0  0  0  0
   47.9230   11.1250   23.1070 O   0  0  0  0  0
   50.7370   12.7280   24.0180 C   0  0  0  0  0
   51.5910   13.8180   23.6760 O   0  0  0  0  0
   49.7770    9.9300   23.5880 N   0  0  0  0  0
   49.0880    8.7250   24.0370 C   0  0  0  0  0
   49.5460    8.4330   25.4610 C   0  0  0  0  0
   50.7270    8.6370   25.7800 O   0  0  0  0  0
   49.3720    7.5540   23.0850 C   0  0  0  0  0
   48.8230    7.8210   21.7170 C   0  0  0  0  0
   50.8610    7.3220   23.0010 C   0  0  0  0  0
   48.6570    7.9800   26.3490 N   0  0  0  0  0
   49.0710    7.6970   27.7330 C   0  0  0  0  0
   50.1990    6.6760   27.8360 C   0  0  0  0  0
   50.3610    5.7900   26.9890 O   0  0  0  0  0
   47.7900    7.1660   28.3830 C   0  0  0  0  0
   46.6950    7.7540   27.5660 C   0  0  0  0  0
   47.2010    7.8250   26.1680 C   0  0  0  0  0
   50.9630    6.7550   28.9070 N   0  0  0  0  0
   52.1040    5.8470   29.1770 C   0  0  0  0  0
   51.7000    4.3690   29.0870 C   0  0  0  0  0
   52.4870    3.5990   28.6620 O   0  0  0  0  0
   52.6780    6.2010   30.5490 C   0  0  0  0  0
   53.8220    5.3650   31.0020 C   0  0  0  0  0
   55.0050    5.3010   30.3220 N   0  0  0  0  0
   53.9770    4.5950   32.0880 C   0  0  0  0  0
   55.8230    4.5070   30.9510 C   0  0  0  0  0
   55.2180    4.0660   32.0260 N   0  0  0  0  0
   50.4630    4.0240   29.3920 N   0  0  0  0  0
   50.0320    2.6010   29.4520 C   0  0  0  0  0
   49.4700    2.1130   28.1240 C   0  0  0  0  0
   48.8270    1.0910   28.1430 O   0  0  0  0  0
   48.9050    2.4350   30.4770 C   0  0  0  0  0
   48.0440    3.6790   30.5620 C   0  0  0  0  0
   46.9970    3.7040   29.9740 O   0  0  0  0  0
   48.4930    4.6340   31.1880 O   0  0  0  0  0
   49.6510    2.8580   27.0370 N   0  0  0  0  0
   49.0200    2.4490   25.7660 C   0  0  0  0  0
   49.9810    2.4790   24.5800 C   0  0  0  0  0
   51.0390    3.0390   24.7230 O   0  0  0  0  0
   47.8860    3.3330   25.5060 C   0  0  0  0  0
   48.3940    4.5390   25.0200 O   0  0  0  0  0
   49.6350    1.9410   23.5580 O   0  0  0  0  0
   45.3128   23.9212    4.2121 H   0  0  0  0  0
   44.7345   22.3811    4.8938 H   0  0  0  0  0
   44.0554   23.9220    5.4730 H   0  0  0  0  0
   44.7177   24.4952    7.3595 H   0  0  0  0  0
   47.4396   24.8257    8.0769 H   0  0  0  0  0
   45.5996   24.4364   10.3270 H   0  0  0  0  0
   45.0174   25.6190    9.0613 H   0  0  0  0  0
   47.3327   26.6485    9.3222 H   0  0  0  0  0
   47.3818   25.7361   10.8828 H   0  0  0  0  0
   46.8183   28.5008    9.7672 H   0  0  0  0  0
   48.9033   23.7018    9.2404 H   0  0  0  0  0
   48.6474   20.8507    9.2786 H   0  0  0  0  0
   50.4855   22.5938   10.9246 H   0  0  0  0  0
   50.7829   22.0204    9.2103 H   0  0  0  0  0
   50.8537   19.7609    9.9863 H   0  0  0  0  0
   50.5557   20.3273   11.6848 H   0  0  0  0  0
   52.7546   20.4689    9.1449 H   0  0  0  0  0
   47.9283   19.4303   10.7544 H   0  0  0  0  0
   46.3976   20.5270   12.9752 H   0  0  0  0  0
   45.9959   18.1580   13.5614 H   0  0  0  0  0
   47.1034   17.6931   12.1977 H   0  0  0  0  0
   45.5892   18.1731   10.6374 H   0  0  0  0  0
   44.8592   19.5159   11.6082 H   0  0  0  0  0
   43.6881   18.7631   13.3322 H   0  0  0  0  0
   46.7148   20.2005   15.1818 H   0  0  0  0  0
   49.4960   20.1950   16.0349 H   0  0  0  0  0
   48.5540   20.2218   18.2921 H   0  0  0  0  0
   46.9092   19.9487   17.5831 H   0  0  0  0  0
   46.3792   23.3744   17.4773 H   0  0  0  0  0
   45.8236   21.7677   17.9581 H   0  0  0  0  0
   50.3925   18.6984   17.5833 H   0  0  0  0  0
   49.7222   15.8961   16.8050 H   0  0  0  0  0
   52.1593   17.1946   18.0187 H   0  0  0  0  0
   51.6481   17.3415   15.5631 H   0  0  0  0  0
   51.7820   15.5233   15.5279 H   0  0  0  0  0
   51.7920   15.0603   19.1554 H   0  0  0  0  0
   51.6208   14.2412   17.5835 H   0  0  0  0  0
   53.1803   14.9672   18.0441 H   0  0  0  0  0
   53.9307   17.4739   16.3007 H   0  0  0  0  0
   54.0614   15.6983   16.2664 H   0  0  0  0  0
   53.8048   16.6016   14.7534 H   0  0  0  0  0
   49.0443   14.3561   18.1852 H   0  0  0  0  0
   48.5718   15.3304   20.9805 H   0  0  0  0  0
   46.7286   13.6536   21.0382 H   0  0  0  0  0
   46.9958   13.4272   19.2456 H   0  0  0  0  0
   46.7109   15.4473   17.7586 H   0  0  0  0  0
   45.3271   15.3552   21.8065 H   0  0  0  0  0
   45.1981   17.3313   17.2873 H   0  0  0  0  0
   43.8066   17.2364   21.3305 H   0  0  0  0  0
   45.1168   20.3905   17.8265 H   0  0  0  0  0
   45.7142   19.8147   20.1233 H   0  0  0  0  0
   48.7430   13.8487   22.6751 H   0  0  0  0  0
   50.8172   11.8031   22.0900 H   0  0  0  0  0
   51.3359   11.9407   24.4758 H   0  0  0  0  0
   49.9733   13.0820   24.7106 H   0  0  0  0  0
   52.0108   14.1557   24.4706 H   0  0  0  0  0
   50.7969    9.9356   23.5999 H   0  0  0  0  0
   48.0077    8.8696   24.0295 H   0  0  0  0  0
   48.8803    6.6647   23.4793 H   0  0  0  0  0
   47.7442    7.9634   21.7812 H   0  0  0  0  0
   49.2859    8.7201   21.3103 H   0  0  0  0  0
   49.0408    6.9731   21.0676 H   0  0  0  0  0
   51.3471    8.2223   22.6250 H   0  0  0  0  0
   51.2472    7.0862   23.9926 H   0  0  0  0  0
   51.0603    6.4906   22.3249 H   0  0  0  0  0
   49.4784    8.5851   28.2161 H   0  0  0  0  0
   47.7153    7.4466   29.4336 H   0  0  0  0  0
   47.7555    6.0766   28.3937 H   0  0  0  0  0
   46.4230    8.7437   27.9330 H   0  0  0  0  0
   45.7940    7.1433   27.6241 H   0  0  0  0  0
   46.9400    6.9456   25.5793 H   0  0  0  0  0
   46.7569    8.6419   25.5992 H   0  0  0  0  0
   50.7574    7.4837   29.5905 H   0  0  0  0  0
   52.8687    5.9856   28.4127 H   0  0  0  0  0
   51.8756    6.0446   31.2700 H   0  0  0  0  0
   53.0514    7.2223   30.4743 H   0  0  0  0  0
   53.2401    4.4273   32.8734 H   0  0  0  0  0
   56.8356    4.2532   30.6375 H   0  0  0  0  0
   49.7813    4.7556   29.5928 H   0  0  0  0  0
   50.9195    2.0266   29.7175 H   0  0  0  0  0
   49.3515    2.2566   31.4552 H   0  0  0  0  0
   48.2762    1.6005   30.1667 H   0  0  0  0  0
   49.3371    4.3923   31.5763 H   0  0  0  0  0
   50.2200    3.7034   27.0809 H   0  0  0  0  0
   48.6977    1.4134   25.8741 H   0  0  0  0  0
   47.3172    3.5009   26.4205 H   0  0  0  0  0
   47.2122    2.8828   24.7770 H   0  0  0  0  0
   47.6684    5.1412   24.8399 H   0  0  0  0  0
   48.7601    1.5640   23.6765 H   0  0  0  0  0
  1  2  2  0  0  0
  1  3  1  0  0  0
  1  4  1  0  0  0
  4  5  1  0  0  0
  5  6  1  0  0  0
  5  8  1  0  0  0
  6  7  2  0  0  0
  6 13  1  0  0  0
  8  9  1  0  0  0
  9 10  1  0  0  0
 10 11  2  0  0  0
 10 12  1  0  0  0
 13 14  1  0  0  0
 14 15  1  0  0  0
 14 17  1  0  0  0
 15 16  2  0  0  0
 15 22  1  0  0  0
 17 18  1  0  0  0
 18 19  1  0  0  0
 19 20  1  0  0  0
 19 21  2  0  0  0
 22 23  1  0  0  0
 23 24  1  0  0  0
 23 26  1  0  0  0
 24 25  2  0  0  0
 24 31  1  0  0  0
 26 27  1  0  0  0
 27 28  1  0  0  0
 28 29  2  0  0  0
 28 30  1  0  0  0
 31 32  1  0  0  0
 32 33  1  0  0  0
 32 35  1  0  0  0
 33 34  2  0  0  0
 33 39  1  0  0  0
 35 36  1  0  0  0
 36 37  2  0  0  0
 36 38  1  0  0  0
 39 40  1  0  0  0
 40 41  1  0  0  0
 40 43  1  0  0  0
 41 42  2  0  0  0
 41 47  1  0  0  0
 43 44  1  0  0  0
 43 45  1  0  0  0
 44 46  1  0  0  0
 47 48  1  0  0  0
 48 49  1  0  0  0
 48 51  1  0  0  0
 49 50  2  0  0  0
 49 63  1  0  0  0
 51 52  1  0  0  0
 52 53  4  0  0  0
 52 54  4  0  0  0
 53 55  4  0  0  0
 54 56  4  0  0  0
 55 57  4  0  0  0
 56 57  4  0  0  0
 57 58  1  0  0  0
 58 59  1  0  0  0
 59 60  1  0  0  0
 59 61  2  0  0  0
 59 62  1  0  0  0
 63 64  1  0  0  0
 64 65  1  0  0  0
 64 67  1  0  0  0
 65 66  2  0  0  0
 65 69  1  0  0  0
 67 68  1  0  0  0
 69 70  1  0  0  0
 70 71  1  0  0  0
 70 73  1  0  0  0
 71 72  2  0  0  0
 71 76  1  0  0  0
 73 74  1  0  0  0
 73 75  1  0  0  0
 76 77  1  0  0  0
 76 82  1  0  0  0
 77 78  1  0  0  0
 77 80  1  0  0  0
 78 79  2  0  0  0
 78 83  1  0  0  0
 80 81  1  0  0  0
 81 82  1  0  0  0
 83 84  1  0  0  0
 84 85  1  0  0  0
 84 87  1  0  0  0
 85 86  2  0  0  0
 85 93  1  0  0  0
 87 88  1  0  0  0
 88 89  4  0  0  0
 88 90  4  0  0  0
 89 91  4  0  0  0
 90 92  4  0  0  0
 91 92  4  0  0  0
 93 94  1  0  0  0
 94 95  1  0  0  0
 94 97  1  0  0  0
 95 96  2  0  0  0
 95101  1  0  0  0
 97 98  1  0  0  0
 98 99  2  0  0  0
 98100  1  0  0  0
101102  1  0  0  0
102103  1  0  0  0
102105  1  0  0  0
103104  2  0  0  0
103107  1  0  0  0
105106  1  0  0  0
  3108  1  0  0  0
  3109  1  0  0  0
  3110  1  0  0  0
  4111  1  0  0  0
  5112  1  0  0  0
  8113  1  0  0  0
  8114  1  0  0  0
  9115  1  0  0  0
  9116  1  0  0  0
 12117  1  0  0  0
 13118  1  0  0  0
 14119  1  0  0  0
 17120  1  0  0  0
 17121  1  0  0  0
 18122  1  0  0  0
 18123  1  0  0  0
 20124  1  0  0  0
 22125  1  0  0  0
 23126  1  0  0  0
 26127  1  0  0  0
 26128  1  0  0  0
 27129  1  0  0  0
 27130  1  0  0  0
 30131  1  0  0  0
 31132  1  0  0  0
 32133  1  0  0  0
 35134  1  0  0  0
 35135  1  0  0  0
 38136  1  0  0  0
 38137  1  0  0  0
 39138  1  0  0  0
 40139  1  0  0  0
 43140  1  0  0  0
 44141  1  0  0  0
 44142  1  0  0  0
 45143  1  0  0  0
 45144  1  0  0  0
 45145  1  0  0  0
 46146  1  0  0  0
 46147  1  0  0  0
 46148  1  0  0  0
 47149  1  0  0  0
 48150  1  0  0  0
 51151  1  0  0  0
 51152  1  0  0  0
 53153  1  0  0  0
 54154  1  0  0  0
 55155  1  0  0  0
 56156  1  0  0  0
 60157  1  0  0  0
 62158  1  0  0  0
 63159  1  0  0  0
 64160  1  0  0  0
 67161  1  0  0  0
 67162  1  0  0  0
 68163  1  0  0  0
 69164  1  0  0  0
 70165  1  0  0  0
 73166  1  0  0  0
 74167  1  0  0  0
 74168  1  0  0  0
 74169  1  0  0  0
 75170  1  0  0  0
 75171  1  0  0  0
 75172  1  0  0  0
 77173  1  0  0  0
 80174  1  0  0  0
 80175  1  0  0  0
 81176  1  0  0  0
 81177  1  0  0  0
 82178  1  0  0  0
 82179  1  0  0  0
 83180  1  0  0  0
 84181  1  0  0  0
 87182  1  0  0  0
 87183  1  0  0  0
 90184  1  0  0  0
 91185  1  0  0  0
 93186  1  0  0  0
 94187  1  0  0  0
 97188  1  0  0  0
 97189  1  0  0  0
100190  1  0  0  0
101191  1  0  0  0
102192  1  0  0  0
105193  1  0  0  0
105194  1  0  0  0
106195  1  0  0  0
107196  1  0  0  0
M  END
$$$$
