6sge_ligand
  -I-interpret- 

 47 49  0  0  0  0  0  0  0  0999 V2000
   46.8570   14.4800   74.9450 P   0  0  0  0  0
   45.8610   13.6960   75.7600 O   0  0  0  0  0
   47.2660   15.8060   75.6390 O   0  0  0  0  0
   46.3910   14.7680   73.2820 O   0  0  0  0  0
   48.2140   13.5210   74.6320 O   0  0  0  0  0
   49.0860   12.7650   75.8350 P   0  0  0  0  0
   50.1150   13.7410   76.3770 O   0  0  0  0  0
   48.1800   12.0990   76.8430 O   0  0  0  0  0
   49.8340   11.7120   74.9300 O   0  0  0  0  0
   49.7010   10.0900   75.0760 P   0  0  0  0  0
   50.0970    9.6180   76.4420 O   0  0  0  0  0
   48.3060    9.6880   74.5730 O   0  0  0  0  0
   50.7850    9.6350   74.0170 O   0  0  0  0  0
   50.9180   10.2100   72.7440 C   0  0  0  0  0
   51.6410    9.3160   71.7970 C   0  0  0  0  0
   52.9980    9.1780   72.2830 O   0  0  0  0  0
   51.1380    7.7800   71.7440 C   0  0  0  0  0
   51.2360    7.4650   70.3230 O   0  0  0  0  0
   51.9170    7.1670   72.6150 C   0  0  0  0  0
   51.9660    5.7130   72.3290 O   0  0  0  0  0
   53.3780    7.7530   72.5780 C   0  0  0  0  0
   53.9890    7.6300   73.8020 N   0  0  0  0  0
   53.5620    7.8920   75.0040 C   0  0  0  0  0
   54.4860    7.6150   75.9370 N   0  0  0  0  0
   55.5070    7.1300   75.2420 C   0  0  0  0  0
   56.8320    6.6100   75.6960 C   0  0  0  0  0
   57.2110    6.5450   76.8110 O   0  0  0  0  0
   57.6350    6.2110   74.6740 N   0  0  0  0  0
   57.3230    6.2060   73.3000 C   0  0  0  0  0
   58.2170    5.7500   72.3760 N   0  0  0  0  0
   56.0790    6.6730   72.8260 N   0  0  0  0  0
   55.2440    7.1050   73.8980 C   0  0  0  0  0
   47.8991   16.2722   75.0881 H   0  0  0  0  0
   47.0793   15.2708   72.8405 H   0  0  0  0  0
   50.6293   14.0988   75.6496 H   0  0  0  0  0
   48.1688   10.0464   73.6930 H   0  0  0  0  0
   51.4911   11.1315   72.8458 H   0  0  0  0  0
   49.9191   10.3893   72.3463 H   0  0  0  0  0
   51.4947    9.7787   70.8210 H   0  0  0  0  0
   50.1267    7.4988   72.0377 H   0  0  0  0  0
   50.9555    6.5585   70.1772 H   0  0  0  0  0
   51.4973    7.3300   73.6077 H   0  0  0  0  0
   52.5356    5.2810   72.9697 H   0  0  0  0  0
   54.0831    7.2874   71.8894 H   0  0  0  0  0
   52.5715    8.2892   75.2260 H   0  0  0  0  0
   59.1289    5.4050   72.6756 H   0  0  0  0  0
   55.8111    6.6984   71.8421 H   0  0  0  0  0
  1  2  2  0  0  0
  1  3  1  0  0  0
  1  4  1  0  0  0
  1  5  1  0  0  0
  5  6  1  0  0  0
  6  7  1  0  0  0
  6  8  2  0  0  0
  6  9  1  0  0  0
  9 10  1  0  0  0
 10 11  2  0  0  0
 10 12  1  0  0  0
 10 13  1  0  0  0
 13 14  1  0  0  0
 14 15  1  0  0  0
 15 16  1  0  0  0
 15 17  1  0  0  0
 16 21  1  0  0  0
 17 18  1  0  0  0
 17 19  1  0  0  0
 19 20  1  0  0  0
 19 21  1  0  0  0
 21 22  1  0  0  0
 22 23  4  0  0  0
 22 32  4  0  0  0
 23 24  4  0  0  0
 24 25  4  0  0  0
 25 26  1  0  0  0
 25 32  4  0  0  0
 26 27  2  0  0  0
 26 28  1  0  0  0
 28 29  4  0  0  0
 29 30  2  0  0  0
 29 31  1  0  0  0
 31 32  1  0  0  0
  3 33  1  0  0  0
  4 34  1  0  0  0
  7 35  1  0  0  0
 12 36  1  0  0  0
 14 37  1  0  0  0
 14 38  1  0  0  0
 15 39  1  0  0  0
 17 40  1  0  0  0
 18 41  1  0  0  0
 19 42  1  0  0  0
 20 43  1  0  0  0
 21 44  1  0  0  0
 23 45  1  0  0  0
 30 46  1  0  0  0
 31 47  1  0  0  0
M  END
$$$$
