6u9v_ligand
  -I-interpret- 

 42 44  0  0  0  0  0  0  0  0999 V2000
  138.9250  168.9640  114.3540 P   0  0  0  0  0
  138.8510  168.7370  112.8630 O   0  0  0  0  0
  137.5620  168.7440  114.9660 O   0  0  0  0  0
  139.9110  167.9950  114.9600 O   0  0  0  0  0
  139.4150  170.5100  114.6470 O   0  0  0  0  0
  140.8750  171.1060  114.1690 P   0  0  0  0  0
  141.2060  170.5740  112.7950 O   0  0  0  0  0
  140.8160  172.6130  114.1220 O   0  0  0  0  0
  142.0460  170.6420  115.2320 O   0  0  0  0  0
  141.6900  170.2950  116.5400 C   0  0  0  0  0
  142.8500  169.5480  117.1720 C   0  0  0  0  0
  144.2100  170.3920  116.9310 O   0  0  0  0  0
  142.6870  169.4130  118.4620 C   0  0  0  0  0
  143.2060  168.0800  118.9000 O   0  0  0  0  0
  143.5180  170.5330  119.1130 C   0  0  0  0  0
  144.0910  170.0800  120.2560 O   0  0  0  0  0
  144.6100  170.8780  118.0770 C   0  0  0  0  0
  144.8050  172.3430  117.9840 N   0  0  0  0  0
  143.8750  172.8980  117.1840 C   0  0  0  0  0
  144.1240  174.2240  117.1570 N   0  0  0  0  0
  145.1880  174.4660  117.9210 C   0  0  0  0  0
  145.9280  175.7620  118.2660 C   0  0  0  0  0
  145.5570  176.7930  117.8150 O   0  0  0  0  0
  147.0660  175.7260  119.1310 N   0  0  0  0  0
  147.5120  174.4680  119.6750 C   0  0  0  0  0
  148.6650  174.4270  120.5530 N   0  0  0  0  0
  146.8030  173.2350  119.3440 N   0  0  0  0  0
  145.6190  173.2820  118.4410 C   0  0  0  0  0
  138.2239  169.3532  112.4774 H   0  0  0  0  0
  136.9358  169.3607  114.5799 H   0  0  0  0  0
  141.2436  169.6152  112.8248 H   0  0  0  0  0
  140.8020  169.6630  116.5289 H   0  0  0  0  0
  141.4675  171.1932  117.1160 H   0  0  0  0  0
  142.9030  168.5600  116.7146 H   0  0  0  0  0
  141.6359  169.4754  118.7437 H   0  0  0  0  0
  143.0840  167.9860  119.8476 H   0  0  0  0  0
  142.9089  171.3989  119.3725 H   0  0  0  0  0
  144.6069  170.7845  120.6550 H   0  0  0  0  0
  145.5687  170.4492  118.3690 H   0  0  0  0  0
  143.0747  172.3764  116.6590 H   0  0  0  0  0
  149.1600  175.2881  120.7854 H   0  0  0  0  0
  147.1174  172.3446  119.7297 H   0  0  0  0  0
  1  2  1  0  0  0
  1  3  1  0  0  0
  1  4  2  0  0  0
  1  5  1  0  0  0
  5  6  1  0  0  0
  6  7  1  0  0  0
  6  8  2  0  0  0
  6  9  1  0  0  0
  9 10  1  0  0  0
 10 11  1  0  0  0
 11 12  1  0  0  0
 11 13  1  0  0  0
 12 17  1  0  0  0
 13 14  1  0  0  0
 13 15  1  0  0  0
 15 16  1  0  0  0
 15 17  1  0  0  0
 17 18  1  0  0  0
 18 19  4  0  0  0
 18 28  4  0  0  0
 19 20  4  0  0  0
 20 21  4  0  0  0
 21 22  1  0  0  0
 21 28  4  0  0  0
 22 23  2  0  0  0
 22 24  1  0  0  0
 24 25  4  0  0  0
 25 26  2  0  0  0
 25 27  1  0  0  0
 27 28  1  0  0  0
  2 29  1  0  0  0
  3 30  1  0  0  0
  7 31  1  0  0  0
 10 32  1  0  0  0
 10 33  1  0  0  0
 11 34  1  0  0  0
 13 35  1  0  0  0
 14 36  1  0  0  0
 15 37  1  0  0  0
 16 38  1  0  0  0
 17 39  1  0  0  0
 19 40  1  0  0  0
 26 41  1  0  0  0
 27 42  1  0  0  0
M  END
$$$$
