1dmt_ligand
  -I-interpret- 

 70 72  0  0  0  0  0  0  0  0999 V2000
   27.2160   41.1930   31.6090 C   0  0  0  0  0
   27.6230   42.2720   30.8190 O   0  0  0  0  0
   25.6860   41.0020   31.4970 C   0  0  0  0  0
   25.2390   40.0860   32.4720 O   0  0  0  0  0
   25.2940   40.5440   30.0730 C   0  0  0  0  0
   23.8550   40.4130   29.9470 O   0  0  0  0  0
   26.0640   39.2580   29.7010 C   0  0  0  0  0
   25.8560   39.0050   28.2870 O   0  0  0  0  0
   27.5530   39.5560   29.9040 C   0  0  0  0  0
   27.8650   39.9810   31.2330 O   0  0  0  0  0
   28.4170   38.3850   29.5120 C   0  0  0  0  0
   28.9340   43.1570   30.9510 P   0  0  0  0  0
   30.1380   42.2750   31.0820 O   0  0  0  0  0
   28.9360   44.1080   29.8520 O   0  0  0  0  0
   28.8020   44.0060   32.4090 N   0  0  0  0  0
   29.9980   44.4090   33.2370 C   0  0  0  0  0
   30.3850   43.2660   34.1440 C   0  0  0  0  0
   31.5050   42.8940   34.4160 O   0  0  0  0  0
   29.5690   45.5800   34.1480 C   0  0  0  0  0
   30.6210   46.0240   35.1710 C   0  0  0  0  0
   29.9540   47.1450   35.9840 C   0  0  0  0  0
   31.9080   46.5460   34.4720 C   0  0  0  0  0
   29.2680   42.5490   34.7520 N   0  0  0  0  0
   29.6610   41.4190   35.6340 C   0  0  0  0  0
   28.5050   40.3730   35.6370 C   0  0  0  0  0
   27.4540   40.5900   34.9740 O   0  0  0  0  0
   29.9190   41.9820   37.0740 C   0  0  0  0  0
   28.5810   42.2780   37.7480 C   0  0  0  0  0
   27.6540   43.1960   37.3360 C   0  0  0  0  0
   28.0300   41.6250   38.9100 C   0  0  0  0  0
   26.5520   43.1560   38.1730 N   0  0  0  0  0
   26.7560   42.1880   39.1630 C   0  0  0  0  0
   28.5160   40.5890   39.7790 C   0  0  0  0  0
   25.9040   41.7870   40.2420 C   0  0  0  0  0
   27.7090   40.1730   40.8470 C   0  0  0  0  0
   26.3990   40.7710   41.0780 C   0  0  0  0  0
   28.6820   39.3600   36.3090 O   0  0  0  0  0
   27.4935   41.4235   32.6376 H   0  0  0  0  0
   25.1978   41.9592   31.6800 H   0  0  0  0  0
   25.4965   40.3966   33.3431 H   0  0  0  0  0
   25.5861   41.3068   29.3512 H   0  0  0  0  0
   23.4367   41.2418   30.1913 H   0  0  0  0  0
   25.7353   38.4084   30.2995 H   0  0  0  0  0
   24.9282   38.8147   28.1302 H   0  0  0  0  0
   27.7763   40.3906   29.2394 H   0  0  0  0  0
   29.4659   38.6785   29.5550 H   0  0  0  0  0
   28.2411   37.5587   30.2007 H   0  0  0  0  0
   28.1668   38.0739   28.4977 H   0  0  0  0  0
   30.0260   41.6925   31.8368 H   0  0  0  0  0
   27.8717   44.2569   32.7436 H   0  0  0  0  0
   30.8268   44.6799   32.5830 H   0  0  0  0  0
   28.7037   45.2368   34.7151 H   0  0  0  0  0
   29.3835   46.4340   33.4965 H   0  0  0  0  0
   30.9347   45.1922   35.8017 H   0  0  0  0  0
   29.6773   47.9610   35.3164 H   0  0  0  0  0
   29.0612   46.7554   36.4732 H   0  0  0  0  0
   30.6521   47.5107   36.7370 H   0  0  0  0  0
   32.3345   45.7520   33.8590 H   0  0  0  0  0
   31.6569   47.3987   33.8411 H   0  0  0  0  0
   32.6316   46.8520   35.2275 H   0  0  0  0  0
   28.2945   42.8035   34.5847 H   0  0  0  0  0
   30.5708   40.9340   35.2802 H   0  0  0  0  0
   27.5282   41.4361   34.5265 H   0  0  0  0  0
   30.5046   42.8989   37.0076 H   0  0  0  0  0
   30.4678   41.2453   37.6607 H   0  0  0  0  0
   27.7662   43.8589   36.4781 H   0  0  0  0  0
   29.4929   40.1356   39.6111 H   0  0  0  0  0
   24.9278   42.2434   40.4056 H   0  0  0  0  0
   28.0663   39.3899   41.5157 H   0  0  0  0  0
   25.7925   40.4237   41.9144 H   0  0  0  0  0
  1  2  1  0  0  0
  1  3  1  0  0  0
  1 10  1  0  0  0
  2 12  1  0  0  0
  3  4  1  0  0  0
  3  5  1  0  0  0
  5  6  1  0  0  0
  5  7  1  0  0  0
  7  8  1  0  0  0
  7  9  1  0  0  0
  9 10  1  0  0  0
  9 11  1  0  0  0
 12 13  1  0  0  0
 12 14  2  0  0  0
 12 15  1  0  0  0
 15 16  1  0  0  0
 16 17  1  0  0  0
 16 19  1  0  0  0
 17 18  2  0  0  0
 17 23  1  0  0  0
 19 20  1  0  0  0
 20 21  1  0  0  0
 20 22  1  0  0  0
 23 24  1  0  0  0
 24 25  1  0  0  0
 24 27  1  0  0  0
 25 26  1  0  0  0
 25 37  2  0  0  0
 27 28  1  0  0  0
 28 29  4  0  0  0
 28 30  4  0  0  0
 29 31  4  0  0  0
 30 32  4  0  0  0
 30 33  4  0  0  0
 31 32  4  0  0  0
 32 34  4  0  0  0
 33 35  4  0  0  0
 34 36  4  0  0  0
 35 36  4  0  0  0
  1 38  1  0  0  0
  3 39  1  0  0  0
  4 40  1  0  0  0
  5 41  1  0  0  0
  6 42  1  0  0  0
  7 43  1  0  0  0
  8 44  1  0  0  0
  9 45  1  0  0  0
 11 46  1  0  0  0
 11 47  1  0  0  0
 11 48  1  0  0  0
 13 49  1  0  0  0
 15 50  1  0  0  0
 16 51  1  0  0  0
 19 52  1  0  0  0
 19 53  1  0  0  0
 20 54  1  0  0  0
 21 55  1  0  0  0
 21 56  1  0  0  0
 21 57  1  0  0  0
 22 58  1  0  0  0
 22 59  1  0  0  0
 22 60  1  0  0  0
 23 61  1  0  0  0
 24 62  1  0  0  0
 26 63  1  0  0  0
 27 64  1  0  0  0
 27 65  1  0  0  0
 29 66  1  0  0  0
 33 67  1  0  0  0
 34 68  1  0  0  0
 35 69  1  0  0  0
 36 70  1  0  0  0
M  END
$$$$
