1dqn_ligand
  -I-interpret- 

 40 42  0  0  0  0  0  0  0  0999 V2000
   23.4040   11.0060   47.1590 P   0  0  0  0  0
   18.0050    9.8050   54.4590 C   0  0  0  0  0
   24.0260   11.8820   48.1770 O   0  0  0  0  0
   22.7370   11.7560   46.0770 O   0  0  0  0  0
   24.4530   10.0810   46.6370 O   0  0  0  0  0
   22.4130   10.0680   47.9320 O   0  0  0  0  0
   21.7530    8.9170   47.3940 C   0  0  0  0  0
   20.9110    8.2770   48.4380 C   0  0  0  0  0
   21.4180    8.3900   49.8160 N   0  3  0  0  0
   19.5220    8.8420   48.5160 C   0  0  0  0  0
   18.7800    8.4630   47.3580 O   0  0  0  0  0
   19.0780    8.2690   49.7960 C   0  0  0  0  0
   18.5730    6.9360   49.6500 O   0  0  0  0  0
   20.3140    8.4140   50.7730 C   0  0  0  0  0
   20.1040    9.7860   51.4320 C   0  0  0  0  0
   20.6030   11.0340   51.0080 C   0  0  0  0  0
   20.2430   12.0520   51.7560 N   0  0  0  0  0
   19.4580   11.4860   52.7440 C   0  0  0  0  0
   18.7640   12.1070   53.8530 C   0  0  0  0  0
   18.7340   13.2870   54.1320 O   0  0  0  0  0
   18.0630   11.1930   54.6610 N   0  0  0  0  0
   17.2950    9.0910   55.3270 N   0  0  0  0  0
   18.6530    9.1980   53.4000 N   0  0  0  0  0
   19.3640   10.0890   52.5760 C   0  0  0  0  0
   24.4423   11.3409   48.8519 H   0  0  0  0  0
   24.8605    9.6145   47.3705 H   0  0  0  0  0
   22.5017    8.2030   47.0508 H   0  0  0  0  0
   21.1194    9.2241   46.5619 H   0  0  0  0  0
   20.9277    7.2398   48.1033 H   0  0  0  0  0
   21.9476    9.2575   49.9021 H   0  0  0  0  0
   22.0102    7.5840   50.0163 H   0  0  0  0  0
   19.4136    9.9266   48.5092 H   0  0  0  0  0
   17.8935    8.8271   47.4140 H   0  0  0  0  0
   18.2198    8.7965   50.2124 H   0  0  0  0  0
   18.2963    6.6042   50.5073 H   0  0  0  0  0
   20.4661    7.6788   51.5632 H   0  0  0  0  0
   21.2376   11.1456   50.1288 H   0  0  0  0  0
   17.5544   11.5705   55.4605 H   0  0  0  0  0
   17.2224    8.0796   55.2168 H   0  0  0  0  0
   16.8228    9.5546   56.1032 H   0  0  0  0  0
  1  3  1  0  0  0
  1  4  2  0  0  0
  1  5  1  0  0  0
  1  6  1  0  0  0
  6  7  1  0  0  0
  7  8  1  0  0  0
  8  9  1  0  0  0
  8 10  1  0  0  0
  9 14  1  0  0  0
 10 11  1  0  0  0
 10 12  1  0  0  0
 12 13  1  0  0  0
 12 14  1  0  0  0
 14 15  1  0  0  0
 15 16  4  0  0  0
 15 24  4  0  0  0
 16 17  4  0  0  0
 17 18  4  0  0  0
 18 19  1  0  0  0
 18 24  4  0  0  0
 19 20  2  0  0  0
 19 21  1  0  0  0
 24 23  1  0  0  0
 23  2  2  0  0  0
  2 22  1  0  0  0
 21  2  1  0  0  0
  3 25  1  0  0  0
  5 26  1  0  0  0
  7 27  1  0  0  0
  7 28  1  0  0  0
  8 29  1  0  0  0
  9 30  1  0  0  0
  9 31  1  0  0  0
 10 32  1  0  0  0
 11 33  1  0  0  0
 12 34  1  0  0  0
 13 35  1  0  0  0
 14 36  1  0  0  0
 16 37  1  0  0  0
 21 38  1  0  0  0
 22 39  1  0  0  0
 22 40  1  0  0  0
M  END
$$$$
