1ent_ligand
  -I-interpret- 

 96 97  0  0  0  0  0  0  0  0999 V2000
    1.9390   27.2090   19.7660 O   0  0  0  0  0
    2.7800   26.3810   19.3940 C   0  0  0  0  0
    2.5800   24.9860   19.5670 O   0  0  0  0  0
    1.4470   24.4840   20.2840 C   0  0  0  0  0
    1.3410   25.1590   21.6570 C   0  0  0  0  0
    1.6150   22.9680   20.4520 C   0  0  0  0  0
    0.1790   24.7600   19.4720 C   0  0  0  0  0
    3.9230   26.7030   18.8150 N   0  0  0  0  0
    4.2970   28.1010   18.5560 C   0  0  0  0  0
    3.4020   28.6710   17.4480 C   0  0  0  0  0
    2.9540   27.9280   16.5910 O   0  0  0  0  0
    5.7520   28.2010   18.1070 C   0  0  0  0  0
    6.7300   28.0020   19.2580 C   0  0  0  0  0
    6.7520   26.8100   19.9730 C   0  0  0  0  0
    7.6360   29.0090   19.5810 C   0  0  0  0  0
    7.6560   26.6430   21.0170 C   0  0  0  0  0
    8.5400   28.8390   20.6220 C   0  0  0  0  0
    8.5550   27.6410   21.3370 C   0  0  0  0  0
    3.1880   29.9620   17.5180 N   0  0  0  0  0
    2.3450   30.6710   16.5180 C   0  0  0  0  0
    3.0170   32.0150   16.2170 C   0  0  0  0  0
    2.5650   33.0570   16.6730 O   0  0  0  0  0
    0.9730   30.9290   17.1680 C   0  0  0  0  0
   -0.0270   31.3150   16.0920 C   0  0  0  0  0
   -1.4100   31.2680   16.2120 N   0  0  0  0  0
    0.2970   31.8100   14.8330 C   0  0  0  0  0
   -1.9510   31.7320   15.0200 C   0  0  0  0  0
   -0.8950   32.0800   14.1800 N   0  0  0  0  0
    4.0970   31.9570   15.4550 N   0  0  0  0  0
    4.8680   33.1420   15.0750 C   0  0  0  0  0
    6.3390   32.9510   15.4960 C   0  0  0  0  0
    6.4650   32.5330   16.9540 C   0  0  0  0  0
    7.9020   32.3100   17.3750 C   0  0  0  0  0
    5.8230   33.5630   17.9340 C   0  0  0  0  0
    4.8220   33.4490   13.2960 P   0  0  0  0  0
    5.1030   32.1610   12.5580 O   0  0  0  0  0
    5.8340   34.5250   13.0150 O   0  0  0  0  0
    3.2250   34.1140   12.7590 C   0  0  0  0  0
    3.1080   35.5420   13.2780 C   0  0  0  0  0
    2.6020   35.7700   14.3720 O   0  0  0  0  0
    3.5720   36.5380   12.5250 N   0  0  0  0  0
    3.4740   37.9230   13.0180 C   0  0  0  0  0
    3.5640   38.9440   11.9000 C   0  0  0  0  0
    3.5200   40.3680   12.4820 C   0  0  0  0  0
    2.4190   38.7520   10.9120 C   0  0  0  0  0
    4.5270   41.3030   11.8420 C   0  0  0  0  0
    1.2243   26.2345   21.5237 H   0  0  0  0  0
    0.4771   24.7618   22.1900 H   0  0  0  0  0
    2.2465   24.9587   22.2298 H   0  0  0  0  0
    0.7484   22.5634   20.9750 H   0  0  0  0  0
    1.6987   22.5020   19.4702 H   0  0  0  0  0
    2.5168   22.7655   21.0298 H   0  0  0  0  0
   -0.6853   24.3627   20.0041 H   0  0  0  0  0
    0.0619   25.8354   19.3378 H   0  0  0  0  0
    0.2607   24.2778   18.4979 H   0  0  0  0  0
    4.5649   25.9597   18.5395 H   0  0  0  0  0
    4.1698   28.6658   19.4796 H   0  0  0  0  0
    5.9109   29.1988   17.6981 H   0  0  0  0  0
    5.9326   27.4170   17.3716 H   0  0  0  0  0
    6.0614   26.0069   19.7158 H   0  0  0  0  0
    7.6358   29.9387   19.0120 H   0  0  0  0  0
    7.6547   25.7147   21.5883 H   0  0  0  0  0
    9.2349   29.6384   20.8792 H   0  0  0  0  0
    9.2727   27.4937   22.1440 H   0  0  0  0  0
    3.6106   30.4948   18.2782 H   0  0  0  0  0
    2.2285   30.0916   15.6021 H   0  0  0  0  0
    1.0591   31.7379   17.8935 H   0  0  0  0  0
    0.6335   30.0257   17.6748 H   0  0  0  0  0
    1.3008   31.9578   14.4346 H   0  0  0  0  0
   -3.0122   31.8100   14.7837 H   0  0  0  0  0
    4.4063   31.0457   15.1171 H   0  0  0  0  0
    4.4183   33.9961   15.5813 H   0  0  0  0  0
    6.8564   33.9018   15.3681 H   0  0  0  0  0
    6.7712   32.1645   14.8774 H   0  0  0  0  0
    5.9208   31.5906   17.0158 H   0  0  0  0  0
    8.3409   31.5228   16.7619 H   0  0  0  0  0
    8.4658   33.2332   17.2415 H   0  0  0  0  0
    7.9303   32.0139   18.4236 H   0  0  0  0  0
    6.3164   34.5281   17.8192 H   0  0  0  0  0
    4.7620   33.6665   17.7065 H   0  0  0  0  0
    5.9435   33.2115   18.9587 H   0  0  0  0  0
    4.4273   31.5148   12.7757 H   0  0  0  0  0
    2.4123   33.5035   13.1527 H   0  0  0  0  0
    3.1603   34.1033   11.6710 H   0  0  0  0  0
    3.9912   36.3437   11.6157 H   0  0  0  0  0
    4.3057   38.0970   13.7007 H   0  0  0  0  0
    2.5051   38.0398   13.5035 H   0  0  0  0  0
    4.5082   38.8020   11.3742 H   0  0  0  0  0
    3.7591   40.2997   13.5433 H   0  0  0  0  0
    2.5256   40.7725   12.2932 H   0  0  0  0  0
    2.4736   37.7508   10.4846 H   0  0  0  0  0
    1.4685   38.8756   11.4309 H   0  0  0  0  0
    2.4991   39.4929   10.1165 H   0  0  0  0  0
    5.5329   40.9129   11.9973 H   0  0  0  0  0
    4.3252   41.3759   10.7733 H   0  0  0  0  0
    4.4445   42.2902   12.2968 H   0  0  0  0  0
  2  1  2  0  0  0
  2  3  1  0  0  0
  3  4  1  0  0  0
  4  7  1  0  0  0
  4  6  1  0  0  0
  4  5  1  0  0  0
 10  9  1  0  0  0
  9 12  1  0  0  0
  9  8  1  0  0  0
 12 13  1  0  0  0
 13 15  4  0  0  0
 13 14  4  0  0  0
 14 16  4  0  0  0
 16 18  4  0  0  0
 17 18  4  0  0  0
 15 17  4  0  0  0
 10 11  2  0  0  0
 21 20  1  0  0  0
 20 23  1  0  0  0
 20 19  1  0  0  0
 23 24  1  0  0  0
 24 26  4  0  0  0
 24 25  4  0  0  0
 25 27  4  0  0  0
 27 28  4  0  0  0
 26 28  4  0  0  0
 21 22  2  0  0  0
 30 29  1  0  0  0
 35 30  1  0  0  0
 30 31  1  0  0  0
 31 32  1  0  0  0
 32 34  1  0  0  0
 32 33  1  0  0  0
 38 35  1  0  0  0
 35 37  2  0  0  0
 35 36  1  0  0  0
 39 38  1  0  0  0
 39 40  2  0  0  0
 41 42  1  0  0  0
 42 43  1  0  0  0
 43 45  1  0  0  0
 43 44  1  0  0  0
 44 46  1  0  0  0
 19 10  1  0  0  0
  8  2  1  0  0  0
 29 21  1  0  0  0
 39 41  1  0  0  0
  5 47  1  0  0  0
  5 48  1  0  0  0
  5 49  1  0  0  0
  6 50  1  0  0  0
  6 51  1  0  0  0
  6 52  1  0  0  0
  7 53  1  0  0  0
  7 54  1  0  0  0
  7 55  1  0  0  0
  8 56  1  0  0  0
  9 57  1  0  0  0
 12 58  1  0  0  0
 12 59  1  0  0  0
 14 60  1  0  0  0
 15 61  1  0  0  0
 16 62  1  0  0  0
 17 63  1  0  0  0
 18 64  1  0  0  0
 19 65  1  0  0  0
 20 66  1  0  0  0
 23 67  1  0  0  0
 23 68  1  0  0  0
 26 69  1  0  0  0
 27 70  1  0  0  0
 29 71  1  0  0  0
 30 72  1  0  0  0
 31 73  1  0  0  0
 31 74  1  0  0  0
 32 75  1  0  0  0
 33 76  1  0  0  0
 33 77  1  0  0  0
 33 78  1  0  0  0
 34 79  1  0  0  0
 34 80  1  0  0  0
 34 81  1  0  0  0
 36 82  1  0  0  0
 38 83  1  0  0  0
 38 84  1  0  0  0
 41 85  1  0  0  0
 42 86  1  0  0  0
 42 87  1  0  0  0
 43 88  1  0  0  0
 44 89  1  0  0  0
 44 90  1  0  0  0
 45 91  1  0  0  0
 45 92  1  0  0  0
 45 93  1  0  0  0
 46 94  1  0  0  0
 46 95  1  0  0  0
 46 96  1  0  0  0
M  END
$$$$
