1epq_ligand
  -I-interpret- 

 82 83  0  0  0  0  0  0  0  0999 V2000
    2.5130   26.8580   19.9220 S   0  0  0  0  0
    2.9150   27.7570   20.9730 O   0  0  0  0  0
    1.3800   27.4970   19.3050 O   0  0  0  0  0
    3.3180   26.8670   18.8810 N   0  0  0  0  0
    3.9880   28.0780   18.4200 C   0  0  0  0  0
    3.2950   28.6280   17.1980 C   0  0  0  0  0
    2.8370   27.8720   16.3370 O   0  0  0  0  0
    5.4220   27.7720   18.0490 C   0  0  0  0  0
    6.3260   27.9180   19.2420 C   0  0  0  0  0
    6.3350   29.1240   19.9380 C   0  0  0  0  0
    7.1200   26.8470   19.6350 C   0  0  0  0  0
    7.1530   29.2660   21.0520 C   0  0  0  0  0
    7.9410   26.9860   20.7550 C   0  0  0  0  0
    7.9560   28.1970   21.4640 C   0  0  0  0  0
    3.2450   29.9370   17.1640 N   0  0  0  0  0
    2.6390   30.6630   16.0500 C   0  0  0  0  0
    3.3440   32.0070   15.8760 C   0  0  0  0  0
    2.9630   33.0130   16.4880 O   0  0  0  0  0
    6.6630   32.8800   14.9000 C   0  0  0  0  0
    5.1670   33.1840   14.7360 C   0  0  0  0  0
    4.8790   33.6500   13.3010 C   0  0  0  0  0
    3.3850   33.9690   13.1620 C   0  0  0  0  0
    3.0280   34.3300   11.7170 C   0  0  0  0  0
    1.5260   34.6330   11.6200 C   0  0  0  0  0
    1.1910   35.2180   10.2460 C   0  0  0  0  0
    0.7180   33.3470   11.8200 C   0  0  0  0  0
    7.0290   32.3230   16.2870 C   0  0  0  0  0
    6.6760   33.3410   17.3820 C   0  0  0  0  0
    6.9910   32.7630   18.7690 C   0  0  0  0  0
    8.4570   32.3360   18.8350 C   0  0  0  0  0
    8.7680   31.3890   17.6790 C   0  0  0  0  0
    8.4070   32.0510   16.3450 C   0  0  0  0  0
    4.3680   31.9850   15.0390 N   0  0  0  0  0
    5.2330   32.6290   12.3770 O   0  0  0  0  0
    3.0190   35.1530   14.0580 O   0  0  0  0  0
    0.8220   30.9790   16.2880 S   0  0  0  0  0
   -0.2300   29.4960   15.8910 C   0  0  0  0  0
   -1.5610   29.8640   15.2340 C   0  0  0  0  0
    3.4795   25.9946   18.3777 H   0  0  0  0  0
    3.9558   28.8084   19.2284 H   0  0  0  0  0
    5.7424   28.4726   17.2778 H   0  0  0  0  0
    5.4799   26.7451   17.6881 H   0  0  0  0  0
    5.7046   29.9510   19.6111 H   0  0  0  0  0
    7.1017   25.9114   19.0761 H   0  0  0  0  0
    7.1691   30.2065   21.6028 H   0  0  0  0  0
    8.5691   26.1559   21.0783 H   0  0  0  0  0
    8.5961   28.3052   22.3396 H   0  0  0  0  0
    3.6420   30.4663   17.9403 H   0  0  0  0  0
    2.7537   30.0342   15.1670 H   0  0  0  0  0
    6.9253   32.1210   14.1630 H   0  0  0  0  0
    7.2035   33.8177   14.7710 H   0  0  0  0  0
    4.8937   33.9774   15.4317 H   0  0  0  0  0
    5.4683   34.5420   13.0886 H   0  0  0  0  0
    2.8288   33.0796   13.4580 H   0  0  0  0  0
    3.2723   33.4930   11.0629 H   0  0  0  0  0
    3.5959   35.2088   11.4116 H   0  0  0  0  0
    1.2703   35.3545   12.3960 H   0  0  0  0  0
    1.7515   36.1412   10.0991 H   0  0  0  0  0
    1.4610   34.5003    9.4713 H   0  0  0  0  0
    0.1227   35.4276   10.1924 H   0  0  0  0  0
    0.9894   32.6254   11.0494 H   0  0  0  0  0
    0.9377   32.9306   12.8031 H   0  0  0  0  0
   -0.3459   33.5732   11.7493 H   0  0  0  0  0
    6.4632   31.4056   16.4496 H   0  0  0  0  0
    5.6118   33.5698   17.3253 H   0  0  0  0  0
    7.2661   34.2449   17.2309 H   0  0  0  0  0
    6.3558   31.8957   18.9494 H   0  0  0  0  0
    6.8043   33.5244   19.5263 H   0  0  0  0  0
    8.6432   31.8264   19.7804 H   0  0  0  0  0
    9.0942   33.2173   18.7622 H   0  0  0  0  0
    8.1826   30.4770   17.7960 H   0  0  0  0  0
    9.8323   31.1538   17.6854 H   0  0  0  0  0
    8.9569   32.9878   16.2544 H   0  0  0  0  0
    8.6688   31.3742   15.5317 H   0  0  0  0  0
    4.6133   31.1044   14.5865 H   0  0  0  0  0
    5.0495   32.9295   11.4839 H   0  0  0  0  0
    2.0832   35.3459   13.9651 H   0  0  0  0  0
   -0.4528   28.9871   16.8288 H   0  0  0  0  0
    0.3254   28.8740   15.1890 H   0  0  0  0  0
   -2.1318   30.5044   15.9064 H   0  0  0  0  0
   -1.3699   30.3937   14.3007 H   0  0  0  0  0
   -2.1267   28.9553   15.0282 H   0  0  0  0  0
  1  3  4  0  0  0
  1  2  4  0  0  0
  6  5  1  0  0  0
  5  8  1  0  0  0
  5  4  1  0  0  0
  8  9  1  0  0  0
  9 11  4  0  0  0
  9 10  4  0  0  0
 10 12  4  0  0  0
 12 14  4  0  0  0
 13 14  4  0  0  0
 11 13  4  0  0  0
  6  7  2  0  0  0
 17 16  1  0  0  0
 16 15  1  0  0  0
 17 18  2  0  0  0
 19 27  1  0  0  0
 20 19  1  0  0  0
 33 20  1  0  0  0
 20 21  1  0  0  0
 21 34  1  0  0  0
 21 22  1  0  0  0
 22 35  1  0  0  0
 22 23  1  0  0  0
 23 24  1  0  0  0
 24 26  1  0  0  0
 24 25  1  0  0  0
 27 32  1  0  0  0
 27 28  1  0  0  0
 28 29  1  0  0  0
 29 30  1  0  0  0
 31 30  1  0  0  0
 32 31  1  0  0  0
 36 37  1  0  0  0
 37 38  1  0  0  0
 15  6  1  0  0  0
  4  1  1  0  0  0
 16 36  1  0  0  0
 33 17  1  0  0  0
  4 39  1  0  0  0
  5 40  1  0  0  0
  8 41  1  0  0  0
  8 42  1  0  0  0
 10 43  1  0  0  0
 11 44  1  0  0  0
 12 45  1  0  0  0
 13 46  1  0  0  0
 14 47  1  0  0  0
 15 48  1  0  0  0
 16 49  1  0  0  0
 19 50  1  0  0  0
 19 51  1  0  0  0
 20 52  1  0  0  0
 21 53  1  0  0  0
 22 54  1  0  0  0
 23 55  1  0  0  0
 23 56  1  0  0  0
 24 57  1  0  0  0
 25 58  1  0  0  0
 25 59  1  0  0  0
 25 60  1  0  0  0
 26 61  1  0  0  0
 26 62  1  0  0  0
 26 63  1  0  0  0
 27 64  1  0  0  0
 28 65  1  0  0  0
 28 66  1  0  0  0
 29 67  1  0  0  0
 29 68  1  0  0  0
 30 69  1  0  0  0
 30 70  1  0  0  0
 31 71  1  0  0  0
 31 72  1  0  0  0
 32 73  1  0  0  0
 32 74  1  0  0  0
 33 75  1  0  0  0
 34 76  1  0  0  0
 35 77  1  0  0  0
 37 78  1  0  0  0
 37 79  1  0  0  0
 38 80  1  0  0  0
 38 81  1  0  0  0
 38 82  1  0  0  0
M  END
$$$$
