1lvk_ligand
  -I-interpret- 

 59 62  0  0  0  0  0  0  0  0999 V2000
   34.0850   56.6260   21.0180 P   0  0  0  0  0
   33.5590   55.2580   20.8990 O   0  0  0  0  0
   33.6160   57.6380   19.9990 O   0  5  0  0  0
   33.7260   57.1730   22.4520 O   0  0  0  0  0
   36.7460   57.3880   20.0620 P   0  0  0  0  0
   36.5340   56.9610   18.6510 O   0  5  0  0  0
   36.7060   58.8380   20.3630 O   0  0  0  0  0
   35.7650   56.6890   21.0430 O   0  0  0  0  0
   38.1510   56.6920   20.4640 O   0  0  0  0  0
   38.6690   56.9590   21.7900 C   0  0  0  0  0
   40.1590   57.2420   21.7110 C   0  0  0  0  0
   40.7710   56.0520   21.2790 O   0  0  0  0  0
   40.6680   58.2700   20.7080 C   0  0  0  0  0
   41.0180   59.5740   21.1660 O   0  0  0  0  0
   41.4030   57.6980   19.7760 C   0  0  0  0  0
   41.6930   56.2900   20.2150 C   0  0  0  0  0
   41.2890   55.3020   19.1820 N   0  0  0  0  0
   40.0700   54.7480   18.8130 C   0  0  0  0  0
   40.1170   53.8450   17.7520 N   0  0  0  0  0
   41.4800   53.8470   17.4870 C   0  0  0  0  0
   42.1720   53.5110   16.2970 C   0  0  0  0  0
   41.9450   52.4920   15.4880 N   0  0  0  0  0
   43.5310   53.6300   16.3760 N   0  0  0  0  0
   44.0770   54.3130   17.4540 C   0  0  0  0  0
   43.4970   54.9920   18.4470 N   0  0  0  0  0
   42.1770   54.7090   18.3780 C   0  0  0  0  0
   40.8750   60.7410   20.4100 C   0  0  0  0  0
   40.6850   60.5310   19.2320 O   0  0  0  0  0
   41.7570   61.9450   20.7580 C   0  0  0  0  0
   41.4440   62.9620   19.7610 C   0  0  0  0  0
   41.3970   62.8200   18.4060 N   0  0  0  0  0
   41.2170   63.9500   17.5320 C   0  0  0  0  0
   41.4940   64.3340   20.2080 C   0  0  0  0  0
   41.8010   64.7250   21.5290 C   0  0  0  0  0
   42.2080   63.7120   22.4660 C   0  0  0  0  0
   42.2160   62.3430   22.0730 C   0  0  0  0  0
   32.5950   58.1880   22.9920 Be  0  0  0  0  0
   31.3240   57.3640   23.2320 F   0  0  0  0  0
   33.1100   58.8850   24.2910 F   0  0  0  0  0
   32.3210   59.2970   21.9510 F   0  0  0  0  0
   38.4970   56.0831   22.4328 H   0  0  0  0  0
   38.1531   57.8327   22.2149 H   0  0  0  0  0
   40.5046   57.5282   22.7153 H   0  0  0  0  0
   39.7498   58.5047   20.1496 H   0  0  0  0  0
   42.3451   58.2518   19.6508 H   0  0  0  0  0
   40.8548   57.6866   18.8224 H   0  0  0  0  0
   42.7446   56.1654   20.5125 H   0  0  0  0  0
   39.1396   55.0021   19.3187 H   0  0  0  0  0
   42.5272   52.3614   14.6484 H   0  0  0  0  0
   41.1858   51.8279   15.6967 H   0  0  0  0  0
   45.1599   54.2916   17.4973 H   0  0  0  0  0
   41.4928   61.8797   17.9967 H   0  0  0  0  0
   41.2093   63.6075   16.4867 H   0  0  0  0  0
   42.0426   64.6620   17.6784 H   0  0  0  0  0
   40.2616   64.4438   17.7631 H   0  0  0  0  0
   41.2826   65.1124   19.4838 H   0  0  0  0  0
   41.7318   65.7640   21.8304 H   0  0  0  0  0
   42.5082   63.9903   23.4698 H   0  0  0  0  0
   42.5701   61.5892   22.7669 H   0  0  0  0  0
  1  2  2  0  0  0
  1  3  1  0  0  0
  1  4  1  0  0  0
  8  1  1  0  0  0
  5  6  1  0  0  0
  5  7  2  0  0  0
  5  8  1  0  0  0
  5  9  1  0  0  0
  9 10  1  0  0  0
 10 11  1  0  0  0
 11 12  1  0  0  0
 11 13  1  0  0  0
 12 16  1  0  0  0
 13 14  1  0  0  0
 13 15  1  0  0  0
 14 27  1  0  0  0
 15 16  1  0  0  0
 16 17  1  0  0  0
 17 18  1  0  0  0
 17 26  1  0  0  0
 18 19  2  0  0  0
 19 20  1  0  0  0
 20 21  4  0  0  0
 20 26  4  0  0  0
 21 22  1  0  0  0
 21 23  4  0  0  0
 23 24  4  0  0  0
 24 25  4  0  0  0
 25 26  4  0  0  0
 27 28  2  0  0  0
 27 29  1  0  0  0
 29 30  4  0  0  0
 29 36  4  0  0  0
 30 31  1  0  0  0
 30 33  4  0  0  0
 31 32  1  0  0  0
 33 34  4  0  0  0
 34 35  4  0  0  0
 35 36  4  0  0  0
  4 37  1  0  0  0
 37 40  1  0  0  0
 37 39  1  0  0  0
 37 38  1  0  0  0
 10 41  1  0  0  0
 10 42  1  0  0  0
 11 43  1  0  0  0
 13 44  1  0  0  0
 15 45  1  0  0  0
 15 46  1  0  0  0
 16 47  1  0  0  0
 18 48  1  0  0  0
 22 49  1  0  0  0
 22 50  1  0  0  0
 24 51  1  0  0  0
 31 52  1  0  0  0
 32 53  1  0  0  0
 32 54  1  0  0  0
 32 55  1  0  0  0
 33 56  1  0  0  0
 34 57  1  0  0  0
 35 58  1  0  0  0
 36 59  1  0  0  0
M  END
$$$$
