1qja_ligand
  -I-interpret- 

143145  0  0  0  0  0  0  0  0999 V2000
   23.0470   20.9490   40.5100 N   0  3  0  0  0
   23.9850   22.1010   40.5960 C   0  0  0  0  0
   25.3500   21.7780   40.0180 C   0  0  0  0  0
   25.9990   20.8460   40.5070 O   0  0  0  0  0
   24.1870   22.4960   42.0630 C   0  0  0  0  0
   24.4040   24.0020   42.2000 C   0  0  0  0  0
   24.2370   24.3780   43.6600 C   0  0  0  0  0
   25.2620   23.7400   44.4810 N   0  0  0  0  0
   25.3730   23.8250   45.8060 C   0  0  0  0  0
   24.5260   24.5010   46.5650 N   0  0  0  0  0
   26.3890   23.2000   46.3980 N   0  0  0  0  0
   25.8390   22.5620   39.0850 N   0  0  0  0  0
   27.1260   22.3130   38.4460 C   0  0  0  0  0
   28.2820   22.7110   39.3550 C   0  0  0  0  0
   29.3430   22.0970   39.3870 O   0  0  0  0  0
   27.1910   23.0970   37.1270 C   0  0  0  0  0
   26.0850   22.7960   36.1060 C   0  0  0  0  0
   26.3260   23.5710   34.8190 C   0  0  0  0  0
   25.9550   21.3060   35.8040 C   0  0  0  0  0
   28.0750   23.7680   40.1170 N   0  0  0  0  0
   29.1120   24.2460   41.0400 C   0  0  0  0  0
   28.9700   23.5590   42.3980 C   0  0  0  0  0
   27.9540   22.9660   42.7600 O   0  0  0  0  0
   29.0550   25.7400   41.1570 C   0  0  0  0  0
   27.6900   26.2990   41.4800 C   0  0  0  0  0
   26.8040   26.5780   40.4470 C   0  0  0  0  0
   27.3140   26.5450   42.7940 C   0  0  0  0  0
   25.5580   27.1140   40.7510 C   0  0  0  0  0
   26.0740   27.0880   43.0970 C   0  0  0  0  0
   25.1990   27.3540   42.0670 C   0  0  0  0  0
   23.9520   27.8910   42.3120 O   0  0  0  0  0
   30.0880   23.5510   43.1340 N   0  0  0  0  0
   30.1090   22.8070   44.3750 C   0  0  0  0  0
   30.4460   23.6110   45.5990 C   0  0  0  0  0
   31.1390   24.5920   45.6060 O   0  0  0  0  0
   31.2030   21.7020   44.2650 C   0  0  0  0  0
   30.9560   20.8130   43.0840 C   0  0  0  0  0
   31.3410   21.1590   41.8110 N   0  0  0  0  0
   30.3310   19.6150   42.9910 C   0  0  0  0  0
   30.9760   20.1980   40.9770 C   0  0  0  0  0
   30.3610   19.2510   41.6650 N   0  0  0  0  0
   29.9160   23.0770   46.6960 N   0  0  0  0  0
   30.3410   23.6540   47.9800 C   0  0  0  0  0
   29.1660   24.0260   48.8120 C   0  0  0  0  0
   28.6670   22.7100   49.0790 O   0  0  0  0  0
   31.1410   22.4950   48.5940 C   0  0  0  0  0
   31.3070   21.5390   47.8400 O   0  0  0  0  0
   26.8800   22.5530   49.7790 P   0  0  0  0  0
   25.9470   23.4430   49.1240 O   0  0  0  0  0
   27.2300   23.0520   51.1690 O   0  0  0  0  0
   26.4190   21.1030   49.9730 O   0  0  0  0  0
   31.6160   22.6470   49.7920 N   0  0  0  0  0
   32.4650   21.6560   50.4410 C   0  0  0  0  0
   31.7520   20.3320   50.6690 C   0  0  0  0  0
   30.6960   20.2960   51.3290 O   0  0  0  0  0
   32.9530   22.2140   51.7860 C   0  0  0  0  0
   34.0770   21.4450   52.5030 C   0  0  0  0  0
   35.3670   21.5990   51.7070 C   0  0  0  0  0
   34.3090   21.9510   53.9360 C   0  0  0  0  0
   32.3230   19.2690   50.1290 N   0  0  0  0  0
   31.7470   17.9300   50.2560 C   0  0  0  0  0
   31.8860   17.4100   51.6860 C   0  0  0  0  0
   32.7260   17.9160   52.4510 O   0  0  0  0  0
   32.5210   17.0630   49.2690 C   0  0  0  0  0
   33.5720   17.9100   48.6580 C   0  0  0  0  0
   33.5480   19.2730   49.2860 C   0  0  0  0  0
   31.0120   16.4760   52.0940 N   0  0  0  0  0
   31.0560   15.9990   53.4780 C   0  0  0  0  0
   32.4660   15.4750   53.8080 C   0  0  0  0  0
   32.9760   14.8410   52.8500 O   0  0  0  0  0
   30.0310   14.9090   53.7600 C   0  0  0  0  0
   22.9164   20.6907   39.5319 H   0  0  0  0  0
   23.4347   20.1573   41.0232 H   0  0  0  0  0
   22.1491   21.2121   40.9162 H   0  0  0  0  0
   23.5391   22.9117   40.0198 H   0  0  0  0  0
   25.0673   21.9797   42.4460 H   0  0  0  0  0
   23.2956   22.2187   42.6256 H   0  0  0  0  0
   23.6785   24.5407   41.5904 H   0  0  0  0  0
   25.4043   24.2676   41.8582 H   0  0  0  0  0
   23.2567   24.0430   43.9990 H   0  0  0  0  0
   24.3321   25.4595   43.7572 H   0  0  0  0  0
   25.9588   23.1761   43.9943 H   0  0  0  0  0
   23.7392   24.9912   46.1394 H   0  0  0  0  0
   26.4982   23.2503   47.4109 H   0  0  0  0  0
   27.0580   22.6710   45.8386 H   0  0  0  0  0
   25.2977   23.3768   38.7960 H   0  0  0  0  0
   27.2182   21.2454   38.2466 H   0  0  0  0  0
   28.1302   22.8154   36.6509 H   0  0  0  0  0
   27.0833   24.1488   37.3919 H   0  0  0  0  0
   25.1449   23.1171   36.5545 H   0  0  0  0  0
   26.3294   24.6394   35.0350 H   0  0  0  0  0
   27.2882   23.2813   34.3967 H   0  0  0  0  0
   25.5324   23.3455   34.1066 H   0  0  0  0  0
   26.8962   20.9354   35.3978 H   0  0  0  0  0
   25.7181   20.7697   36.7229 H   0  0  0  0  0
   25.1582   21.1522   35.0763 H   0  0  0  0  0
   27.1828   24.2596   40.0642 H   0  0  0  0  0
   30.0938   23.9866   40.6438 H   0  0  0  0  0
   29.3405   26.1443   40.1859 H   0  0  0  0  0
   29.7134   26.0180   41.9800 H   0  0  0  0  0
   27.0821   26.3793   39.4120 H   0  0  0  0  0
   28.0058   26.3071   43.6020 H   0  0  0  0  0
   24.8586   27.3471   39.9481 H   0  0  0  0  0
   25.7975   27.3000   44.1298 H   0  0  0  0  0
   23.8342   28.0050   43.2579 H   0  0  0  0  0
   30.9143   24.0626   42.8242 H   0  0  0  0  0
   29.0947   22.4284   44.5014 H   0  0  0  0  0
   31.1773   21.0948   45.1698 H   0  0  0  0  0
   32.1733   22.1832   44.1422 H   0  0  0  0  0
   29.8889   19.0479   43.8102 H   0  0  0  0  0
   31.1531   20.1889   39.9015 H   0  0  0  0  0
   29.2490   22.3068   46.6489 H   0  0  0  0  0
   30.9154   24.5762   47.8916 H   0  0  0  0  0
   28.4566   24.7028   48.3358 H   0  0  0  0  0
   29.3938   24.6232   49.6949 H   0  0  0  0  0
   27.8491   22.4439   51.5796 H   0  0  0  0  0
   27.1108   20.6048   50.4144 H   0  0  0  0  0
   31.3846   23.4990   50.3028 H   0  0  0  0  0
   33.3056   21.4580   49.7759 H   0  0  0  0  0
   32.0925   22.1695   52.4536 H   0  0  0  0  0
   33.3638   23.1992   51.5652 H   0  0  0  0  0
   33.7764   20.3992   52.5662 H   0  0  0  0  0
   35.2246   21.1945   50.7049 H   0  0  0  0  0
   35.6273   22.6553   51.6402 H   0  0  0  0  0
   36.1687   21.0569   52.2084 H   0  0  0  0  0
   34.5856   23.0049   53.9075 H   0  0  0  0  0
   33.3937   21.8298   54.5154 H   0  0  0  0  0
   35.1116   21.3758   54.3976 H   0  0  0  0  0
   30.6789   17.9233   50.0388 H   0  0  0  0  0
   31.8534   16.6720   48.5012 H   0  0  0  0  0
   32.9687   16.2111   49.7807 H   0  0  0  0  0
   33.3872   18.0010   47.5876 H   0  0  0  0  0
   34.5474   17.4523   48.8228 H   0  0  0  0  0
   34.4468   19.4711   49.8700 H   0  0  0  0  0
   33.5297   20.0677   48.5402 H   0  0  0  0  0
   30.3214   16.1008   51.4438 H   0  0  0  0  0
   30.8087   16.8496   54.1132 H   0  0  0  0  0
   32.3843   14.7964   54.6571 H   0  0  0  0  0
   33.1035   16.3325   54.0233 H   0  0  0  0  0
   33.8508   14.5346   53.1001 H   0  0  0  0  0
   29.0296   15.2965   53.5727 H   0  0  0  0  0
   30.2201   14.0566   53.1075 H   0  0  0  0  0
   30.1121   14.5963   54.8010 H   0  0  0  0  0
  1  2  1  0  0  0
  2  3  1  0  0  0
  2  5  1  0  0  0
  3  4  2  0  0  0
  3 12  1  0  0  0
  5  6  1  0  0  0
  6  7  1  0  0  0
  7  8  1  0  0  0
  8  9  1  0  0  0
  9 10  2  0  0  0
  9 11  1  0  0  0
 12 13  1  0  0  0
 13 14  1  0  0  0
 13 16  1  0  0  0
 14 15  2  0  0  0
 14 20  1  0  0  0
 16 17  1  0  0  0
 17 18  1  0  0  0
 17 19  1  0  0  0
 20 21  1  0  0  0
 21 22  1  0  0  0
 21 24  1  0  0  0
 22 23  2  0  0  0
 22 32  1  0  0  0
 24 25  1  0  0  0
 25 26  4  0  0  0
 25 27  4  0  0  0
 26 28  4  0  0  0
 27 29  4  0  0  0
 28 30  4  0  0  0
 29 30  4  0  0  0
 30 31  1  0  0  0
 32 33  1  0  0  0
 33 34  1  0  0  0
 33 36  1  0  0  0
 34 35  2  0  0  0
 34 42  1  0  0  0
 36 37  1  0  0  0
 37 38  4  0  0  0
 37 39  4  0  0  0
 38 40  4  0  0  0
 39 41  4  0  0  0
 40 41  4  0  0  0
 42 43  1  0  0  0
 43 44  1  0  0  0
 43 46  1  0  0  0
 44 45  1  0  0  0
 45 48  1  0  0  0
 46 47  2  0  0  0
 46 52  1  0  0  0
 48 49  2  0  0  0
 48 50  1  0  0  0
 48 51  1  0  0  0
 52 53  1  0  0  0
 53 54  1  0  0  0
 53 56  1  0  0  0
 54 55  2  0  0  0
 54 60  1  0  0  0
 56 57  1  0  0  0
 57 58  1  0  0  0
 57 59  1  0  0  0
 60 61  1  0  0  0
 60 66  1  0  0  0
 61 62  1  0  0  0
 61 64  1  0  0  0
 62 63  2  0  0  0
 62 67  1  0  0  0
 64 65  1  0  0  0
 65 66  1  0  0  0
 67 68  1  0  0  0
 68 69  1  0  0  0
 68 71  1  0  0  0
 69 70  1  0  0  0
  1 72  1  0  0  0
  1 73  1  0  0  0
  1 74  1  0  0  0
  2 75  1  0  0  0
  5 76  1  0  0  0
  5 77  1  0  0  0
  6 78  1  0  0  0
  6 79  1  0  0  0
  7 80  1  0  0  0
  7 81  1  0  0  0
  8 82  1  0  0  0
 10 83  1  0  0  0
 11 84  1  0  0  0
 11 85  1  0  0  0
 12 86  1  0  0  0
 13 87  1  0  0  0
 16 88  1  0  0  0
 16 89  1  0  0  0
 17 90  1  0  0  0
 18 91  1  0  0  0
 18 92  1  0  0  0
 18 93  1  0  0  0
 19 94  1  0  0  0
 19 95  1  0  0  0
 19 96  1  0  0  0
 20 97  1  0  0  0
 21 98  1  0  0  0
 24 99  1  0  0  0
 24100  1  0  0  0
 26101  1  0  0  0
 27102  1  0  0  0
 28103  1  0  0  0
 29104  1  0  0  0
 31105  1  0  0  0
 32106  1  0  0  0
 33107  1  0  0  0
 36108  1  0  0  0
 36109  1  0  0  0
 39110  1  0  0  0
 40111  1  0  0  0
 42112  1  0  0  0
 43113  1  0  0  0
 44114  1  0  0  0
 44115  1  0  0  0
 50116  1  0  0  0
 51117  1  0  0  0
 52118  1  0  0  0
 53119  1  0  0  0
 56120  1  0  0  0
 56121  1  0  0  0
 57122  1  0  0  0
 58123  1  0  0  0
 58124  1  0  0  0
 58125  1  0  0  0
 59126  1  0  0  0
 59127  1  0  0  0
 59128  1  0  0  0
 61129  1  0  0  0
 64130  1  0  0  0
 64131  1  0  0  0
 65132  1  0  0  0
 65133  1  0  0  0
 66134  1  0  0  0
 66135  1  0  0  0
 67136  1  0  0  0
 68137  1  0  0  0
 69138  1  0  0  0
 69139  1  0  0  0
 70140  1  0  0  0
 71141  1  0  0  0
 71142  1  0  0  0
 71143  1  0  0  0
M  END
$$$$
