1qpf_ligand
  -I-interpret- 

145150  0  0  0  0  0  0  0  0999 V2000
   25.6070   33.8660  136.8350 C   0  0  0  0  0
   24.1140   34.1050  136.6520 C   0  0  0  0  0
   23.8680   35.5600  136.2590 C   0  0  0  0  0
   24.1580   36.5440  137.3760 C   0  0  0  0  0
   23.3580   36.1830  138.6120 C   0  0  0  0  0
   23.6740   34.7650  139.0330 C   0  0  0  0  0
   22.4590   32.9490  137.9870 C   0  0  0  0  0
   21.7880   32.6670  139.1940 C   0  0  0  0  0
   22.2730   31.7870  140.3860 C   0  0  0  0  0
   23.2450   30.6470  139.8860 C   0  0  0  0  0
   24.0140   30.0770  141.0770 C   0  0  0  0  0
   24.6460   31.1240  141.9930 C   0  0  0  0  0
   23.5660   32.1220  142.4560 C   0  0  0  0  0
   24.0310   33.3160  143.3130 C   0  0  0  0  0
   25.2090   34.0250  142.6430 C   0  0  0  0  0
   25.8260   35.2380  143.3410 C   0  0  0  0  0
   26.7720   34.9300  144.5090 C   0  0  0  0  0
   28.1350   34.4170  144.0590 C   0  0  0  0  0
   28.4530   33.1080  144.0310 C   0  0  0  0  0
   29.7190   32.5100  143.4010 C   0  0  0  0  0
   29.6110   32.1830  141.9140 C   0  0  0  0  0
   30.0370   33.2800  140.9330 C   0  0  0  0  0
   29.5480   33.0330  139.4970 C   0  0  0  0  0
   28.0190   33.2690  139.3780 C   0  0  0  0  0
   27.4960   32.8240  137.9860 C   0  0  0  0  0
   27.5690   31.3220  137.7910 C   0  0  0  0  0
   28.3630   30.8700  136.8040 C   0  0  0  0  0
   28.8690   29.4580  136.5400 C   0  0  0  0  0
   29.0530   29.2840  135.0250 C   0  0  0  0  0
   29.6470   27.9330  134.6050 C   0  0  0  0  0
   31.0220   27.7450  135.2670 C   0  0  0  0  0
   30.8820   27.8880  136.7890 C   0  0  0  0  0
   30.2240   29.1960  137.2140 C   0  0  0  0  0
   22.4720   29.5180  139.2070 C   0  0  0  0  0
   24.7170   36.1730  143.8080 C   0  0  0  0  0
   29.1050   35.4860  143.5930 C   0  0  0  0  0
   30.1250   31.2510  144.1730 C   0  0  0  0  0
   31.4530   30.6550  143.7440 C   0  0  0  0  0
   27.6930   34.7490  139.6140 C   0  0  0  0  0
   26.7240   30.4370  138.6750 C   0  0  0  0  0
   26.2270   29.5960  142.9770 C   0  0  0  0  0
   23.1980   32.5180  145.3490 C   0  0  0  0  0
   28.5700   27.8350  132.4680 C   0  0  0  0  0
   32.6890   25.9580  135.2800 C   0  0  0  0  0
   33.7750   26.8170  135.4640 C   0  0  0  0  0
   32.7950   24.5900  135.5290 C   0  0  0  0  0
   34.0180   24.0590  135.9750 C   0  0  0  0  0
   34.9740   26.3260  135.8920 C   0  0  0  0  0
   35.0700   24.9520  136.1400 C   0  0  0  0  0
   34.3820   22.7760  136.3060 C   0  0  0  0  0
   36.1570   24.1380  136.6060 N   0  0  0  0  0
   35.7110   22.6660  136.7290 C   0  0  0  0  0
   37.4500   24.7920  136.8380 C   0  0  0  0  0
   38.6000   23.8300  136.8320 C   0  0  0  0  0
   23.4110   33.8760  137.9030 N   0  0  0  0  0
   26.0960   33.0830  137.8540 O   0  0  0  0  0
   26.4090   34.3920  136.0680 O   0  0  0  0  0
   22.1140   32.3190  136.9860 O   0  0  0  0  0
   20.6860   33.1980  139.3550 O   0  0  0  0  0
   22.9080   32.6690  141.3090 O   0  0  0  0  0
   21.1380   31.3050  141.0920 O   0  0  0  0  0
   25.1660   30.5150  143.1740 O   0  0  0  0  0
   24.3760   32.8300  144.6220 O   0  0  0  0  0
   29.2480   31.0610  141.5380 O   0  0  0  0  0
   30.2580   33.9670  138.6700 O   0  0  0  0  0
   29.8230   27.8500  133.1810 O   0  0  0  0  0
   31.4700   26.4410  134.9060 O   0  0  0  0  0
   23.7561   33.4240  135.8798 H   0  0  0  0  0
   22.8131   35.6567  136.0021 H   0  0  0  0  0
   24.5389   35.7946  135.4326 H   0  0  0  0  0
   23.8789   37.5461  137.0503 H   0  0  0  0  0
   25.2207   36.5087  137.6158 H   0  0  0  0  0
   22.2943   36.2632  138.3881 H   0  0  0  0  0
   23.6188   36.8651  139.4212 H   0  0  0  0  0
   23.0518   34.4816  139.8819 H   0  0  0  0  0
   24.7200   34.6895  139.3301 H   0  0  0  0  0
   23.9331   31.0815  139.1608 H   0  0  0  0  0
   24.8296   29.4793  140.6700 H   0  0  0  0  0
   23.2961   29.5212  141.6802 H   0  0  0  0  0
   25.4407   31.6166  141.4328 H   0  0  0  0  0
   22.9254   31.5203  143.1008 H   0  0  0  0  0
   23.2303   34.0494  143.4078 H   0  0  0  0  0
   24.8123   34.4091  141.7032 H   0  0  0  0  0
   26.0055   33.2817  142.6079 H   0  0  0  0  0
   26.4598   35.7064  142.5880 H   0  0  0  0  0
   26.3083   34.1497  145.1125 H   0  0  0  0  0
   26.9331   35.8583  145.0571 H   0  0  0  0  0
   27.7517   32.4145  144.4951 H   0  0  0  0  0
   30.4781   33.2889  143.4731 H   0  0  0  0  0
   31.1266   33.2986  140.9118 H   0  0  0  0  0
   29.5972   34.2170  141.2747 H   0  0  0  0  0
   29.7327   32.0019  139.1958 H   0  0  0  0  0
   27.5211   32.6680  140.1390 H   0  0  0  0  0
   28.1182   33.3715  137.2780 H   0  0  0  0  0
   28.6923   31.6240  136.0890 H   0  0  0  0  0
   28.1398   28.7577  136.9473 H   0  0  0  0  0
   29.7520   30.0542  134.6988 H   0  0  0  0  0
   28.0627   29.3501  134.5745 H   0  0  0  0  0
   28.9499   27.1574  134.9223 H   0  0  0  0  0
   31.7413   28.4947  134.9373 H   0  0  0  0  0
   31.8851   27.8702  137.2151 H   0  0  0  0  0
   30.2499   27.0722  137.1397 H   0  0  0  0  0
   30.0460   29.1357  138.2877 H   0  0  0  0  0
   30.8932   30.0055  136.9225 H   0  0  0  0  0
   21.7650   29.0862  139.9154 H   0  0  0  0  0
   21.9310   29.9151  138.3481 H   0  0  0  0  0
   23.1703   28.7499  138.8747 H   0  0  0  0  0
   24.1364   36.5045  142.9471 H   0  0  0  0  0
   24.0666   35.6438  144.5045 H   0  0  0  0  0
   25.1575   37.0372  144.3053 H   0  0  0  0  0
   30.0115   35.4403  144.1965 H   0  0  0  0  0
   29.3552   35.3162  142.5458 H   0  0  0  0  0
   28.6428   36.4670  143.7030 H   0  0  0  0  0
   29.3599   30.4982  143.9832 H   0  0  0  0  0
   30.2252   31.5359  145.2203 H   0  0  0  0  0
   31.4033   30.3809  142.6902 H   0  0  0  0  0
   32.2444   31.3896  143.8928 H   0  0  0  0  0
   31.6618   29.7679  144.3420 H   0  0  0  0  0
   28.0231   35.0378  140.6118 H   0  0  0  0  0
   28.2079   35.3563  138.8696 H   0  0  0  0  0
   26.6171   34.9010  139.5277 H   0  0  0  0  0
   26.0168   29.8804  138.0600 H   0  0  0  0  0
   27.3681   29.7401  139.2113 H   0  0  0  0  0
   26.1791   31.0537  139.3897 H   0  0  0  0  0
   25.8865   28.7816  142.3376 H   0  0  0  0  0
   27.0648   30.1066  142.5021 H   0  0  0  0  0
   26.5428   29.1956  143.9404 H   0  0  0  0  0
   22.5856   33.4143  145.4481 H   0  0  0  0  0
   22.6368   31.7500  144.8167 H   0  0  0  0  0
   23.4699   32.1509  146.3387 H   0  0  0  0  0
   27.9837   26.9723  132.7845 H   0  0  0  0  0
   28.0189   28.7500  132.6852 H   0  0  0  0  0
   28.7635   27.7714  131.3972 H   0  0  0  0  0
   33.6643   27.8830  135.2650 H   0  0  0  0  0
   31.9354   23.9368  135.3789 H   0  0  0  0  0
   35.8310   26.9839  136.0364 H   0  0  0  0  0
   33.7016   21.9267  136.2449 H   0  0  0  0  0
   36.2720   21.7895  137.0533 H   0  0  0  0  0
   37.4139   25.2615  137.8210 H   0  0  0  0  0
   37.6105   25.5076  136.0317 H   0  0  0  0  0
   38.4563   23.0890  137.6183 H   0  0  0  0  0
   38.6489   23.3302  135.8646 H   0  0  0  0  0
   39.5279   24.3739  137.0087 H   0  0  0  0  0
   20.6494   30.6965  140.5329 H   0  0  0  0  0
   29.9872   33.8536  137.7560 H   0  0  0  0  0
  1 57  2  0  0  0
  1 56  1  0  0  0
  2  1  1  0  0  0
 55  2  1  0  0  0
  2  3  1  0  0  0
  3  4  1  0  0  0
  5  4  1  0  0  0
  6  5  1  0  0  0
 55  6  1  0  0  0
  7 55  1  0  0  0
  7 58  2  0  0  0
  8  7  2  0  0  0
  8 59  2  0  0  0
  9  8  1  0  0  0
  9 61  1  0  0  0
 60  9  1  0  0  0
 10  9  1  0  0  0
 10 34  1  0  0  0
 11 10  1  0  0  0
 12 11  1  0  0  0
 62 12  1  0  0  0
 12 13  1  0  0  0
 13 60  1  0  0  0
 13 14  1  0  0  0
 14 63  1  0  0  0
 14 15  1  0  0  0
 15 16  1  0  0  0
 16 35  1  0  0  0
 16 17  1  0  0  0
 17 18  1  0  0  0
 18 36  1  0  0  0
 18 19  2  0  0  0
 19 20  1  0  0  0
 20 37  1  0  0  0
 20 21  1  0  0  0
 21 64  2  0  0  0
 21 22  1  0  0  0
 22 23  1  0  0  0
 23 65  1  0  0  0
 23 24  1  0  0  0
 24 39  1  0  0  0
 25 24  1  0  0  0
 56 25  1  0  0  0
 25 26  1  0  0  0
 26 40  1  0  0  0
 26 27  2  0  0  0
 27 28  1  0  0  0
 28 33  1  0  0  0
 28 29  1  0  0  0
 29 30  1  0  0  0
 30 66  1  0  0  0
 30 31  1  0  0  0
 31 67  1  0  0  0
 32 31  1  0  0  0
 33 32  1  0  0  0
 67 44  1  0  0  0
 44 46  4  0  0  0
 44 45  4  0  0  0
 45 48  4  0  0  0
 48 49  4  0  0  0
 49 51  4  0  0  0
 47 49  4  0  0  0
 47 50  4  0  0  0
 46 47  4  0  0  0
 50 52  4  0  0  0
 51 52  4  0  0  0
 51 53  1  0  0  0
 53 54  1  0  0  0
 66 43  1  0  0  0
 37 38  1  0  0  0
 63 42  1  0  0  0
 62 41  1  0  0  0
  2 68  1  0  0  0
  3 69  1  0  0  0
  3 70  1  0  0  0
  4 71  1  0  0  0
  4 72  1  0  0  0
  5 73  1  0  0  0
  5 74  1  0  0  0
  6 75  1  0  0  0
  6 76  1  0  0  0
 10 77  1  0  0  0
 11 78  1  0  0  0
 11 79  1  0  0  0
 12 80  1  0  0  0
 13 81  1  0  0  0
 14 82  1  0  0  0
 15 83  1  0  0  0
 15 84  1  0  0  0
 16 85  1  0  0  0
 17 86  1  0  0  0
 17 87  1  0  0  0
 19 88  1  0  0  0
 20 89  1  0  0  0
 22 90  1  0  0  0
 22 91  1  0  0  0
 23 92  1  0  0  0
 24 93  1  0  0  0
 25 94  1  0  0  0
 27 95  1  0  0  0
 28 96  1  0  0  0
 29 97  1  0  0  0
 29 98  1  0  0  0
 30 99  1  0  0  0
 31100  1  0  0  0
 32101  1  0  0  0
 32102  1  0  0  0
 33103  1  0  0  0
 33104  1  0  0  0
 34105  1  0  0  0
 34106  1  0  0  0
 34107  1  0  0  0
 35108  1  0  0  0
 35109  1  0  0  0
 35110  1  0  0  0
 36111  1  0  0  0
 36112  1  0  0  0
 36113  1  0  0  0
 37114  1  0  0  0
 37115  1  0  0  0
 38116  1  0  0  0
 38117  1  0  0  0
 38118  1  0  0  0
 39119  1  0  0  0
 39120  1  0  0  0
 39121  1  0  0  0
 40122  1  0  0  0
 40123  1  0  0  0
 40124  1  0  0  0
 41125  1  0  0  0
 41126  1  0  0  0
 41127  1  0  0  0
 42128  1  0  0  0
 42129  1  0  0  0
 42130  1  0  0  0
 43131  1  0  0  0
 43132  1  0  0  0
 43133  1  0  0  0
 45134  1  0  0  0
 46135  1  0  0  0
 48136  1  0  0  0
 50137  1  0  0  0
 52138  1  0  0  0
 53139  1  0  0  0
 53140  1  0  0  0
 54141  1  0  0  0
 54142  1  0  0  0
 54143  1  0  0  0
 61144  1  0  0  0
 65145  1  0  0  0
M  END
$$$$
