1wur_ligand
  -I-interpret- 

 45 47  0  0  0  0  0  0  0  0999 V2000
  -29.4920  -16.5820    1.3050 P   0  0  0  0  0
  -30.0130  -16.4570   -0.0940 O   0  0  0  0  0
  -29.7000  -15.3360    2.1170 O   0  0  0  0  0
  -28.0020  -16.9300    1.2700 O   0  0  0  0  0
  -30.3050  -17.7520    2.0430 O   0  0  0  0  0
  -30.8640  -19.1470    1.4490 P   0  0  0  0  0
  -29.8390  -19.7860    0.6020 O   0  0  0  0  0
  -32.1360  -18.9210    0.7370 O   0  0  0  0  0
  -31.0950  -20.0480    2.7320 O   0  0  0  0  0
  -31.4810  -19.7740    4.2770 P   0  0  0  0  0
  -31.7440  -21.0950    4.9210 O   0  0  0  0  0
  -32.6180  -18.8130    4.3010 O   0  0  0  0  0
  -24.4970  -19.1760    6.6240 N   0  0  0  0  0
  -23.6830  -19.8610    5.7420 C   0  0  0  0  0
  -22.5150  -20.1650    6.2590 N   0  0  0  0  0
  -22.5720  -19.6500    7.5560 C   0  0  0  0  0
  -21.6120  -19.6510    8.6100 C   0  0  0  0  0
  -20.4700  -20.1130    8.6320 O   0  0  0  0  0
  -22.1030  -19.0170    9.7660 N   0  0  0  0  0
  -23.3630  -18.4550    9.8670 C   0  0  0  0  0
  -23.6640  -17.8960   11.0490 N   0  0  0  0  0
  -24.2450  -18.4430    8.8950 N   0  0  0  0  0
  -23.7910  -19.0530    7.7740 C   0  0  0  0  0
  -24.0760  -20.1240    4.5990 O   0  0  0  0  0
  -30.1360  -19.1120    4.8090 O   0  0  0  0  0
  -28.9220  -19.8530    5.0040 C   0  0  0  0  0
  -27.9910  -19.0090    5.8350 C   0  0  0  0  0
  -26.7640  -19.7050    6.2070 O   0  0  0  0  0
  -27.5130  -17.7110    5.1430 C   0  0  0  0  0
  -28.0300  -16.5740    5.8250 O   0  0  0  0  0
  -26.0140  -17.7980    5.2020 C   0  0  0  0  0
  -25.8490  -18.6540    6.4060 C   0  0  0  0  0
  -29.3498  -15.4692    3.0009 H   0  0  0  0  0
  -27.6719  -17.0092    2.1680 H   0  0  0  0  0
  -29.0353  -19.9094    1.1123 H   0  0  0  0  0
  -30.9585  -21.6432    4.8566 H   0  0  0  0  0
  -22.9800  -17.9034   11.8056 H   0  0  0  0  0
  -28.4635  -20.0851    4.0427 H   0  0  0  0  0
  -29.1323  -20.7941    5.5121 H   0  0  0  0  0
  -28.6107  -18.7783    6.7015 H   0  0  0  0  0
  -27.8592  -17.6065    4.1147 H   0  0  0  0  0
  -27.7274  -15.7749    5.3875 H   0  0  0  0  0
  -25.5102  -16.8334    5.2642 H   0  0  0  0  0
  -25.5514  -18.1980    4.2997 H   0  0  0  0  0
  -26.0298  -18.0641    7.3045 H   0  0  0  0  0
  1  2  2  0  0  0
  1  3  1  0  0  0
  1  4  1  0  0  0
  5  1  1  0  0  0
  6  5  1  0  0  0
  6  7  1  0  0  0
  6  8  2  0  0  0
  9  6  1  0  0  0
 10  9  1  0  0  0
 10 11  1  0  0  0
 10 12  2  0  0  0
 25 10  1  0  0  0
 13 14  1  0  0  0
 13 23  1  0  0  0
 32 13  1  0  0  0
 14 15  1  0  0  0
 14 24  2  0  0  0
 16 15  2  0  0  0
 16 17  1  0  0  0
 23 16  1  0  0  0
 17 18  2  0  0  0
 17 19  1  0  0  0
 20 19  4  0  0  0
 20 21  2  0  0  0
 22 20  4  0  0  0
 23 22  2  0  0  0
 26 25  1  0  0  0
 27 26  1  0  0  0
 28 27  1  0  0  0
 27 29  1  0  0  0
 28 32  1  0  0  0
 29 30  1  0  0  0
 29 31  1  0  0  0
 31 32  1  0  0  0
  3 33  1  0  0  0
  4 34  1  0  0  0
  7 35  1  0  0  0
 11 36  1  0  0  0
 21 37  1  0  0  0
 26 38  1  0  0  0
 26 39  1  0  0  0
 27 40  1  0  0  0
 29 41  1  0  0  0
 30 42  1  0  0  0
 31 43  1  0  0  0
 31 44  1  0  0  0
 32 45  1  0  0  0
M  END
$$$$
