2ci9_ligand
  -I-interpret- 

142143  0  0  0  0  0  0  0  0999 V2000
   35.7020    0.8760   18.3870 N   0  3  0  0  0
   35.5170    1.9970   17.4180 C   0  0  0  0  0
   36.8320    2.6580   17.0930 C   0  0  0  0  0
   37.3170    3.4950   17.8510 O   0  0  0  0  0
   34.5860    3.0670   17.9730 C   0  0  0  0  0
   33.1780    2.6180   18.0970 C   0  0  0  0  0
   32.1260    3.5000   18.1440 N   0  0  0  0  0
   32.6410    1.3760   18.1650 C   0  0  0  0  0
   31.0010    2.8190   18.2540 C   0  0  0  0  0
   31.2850    1.5300   18.2740 N   0  0  0  0  0
   37.3890    2.2770   15.9520 N   0  0  0  0  0
   38.6300    2.8650   15.4660 C   0  0  0  0  0
   38.2330    3.9050   14.4140 C   0  0  0  0  0
   37.3880    3.6280   13.5660 O   0  0  0  0  0
   39.5830    1.8060   14.8490 C   0  0  0  0  0
   39.6700    0.5320   15.7110 C   0  0  0  0  0
   40.9660    2.4040   14.6660 C   0  0  0  0  0
   40.0740    0.7760   17.1500 C   0  0  0  0  0
   38.8240    5.1010   14.5000 N   0  0  0  0  0
   38.5850    6.1720   13.5310 C   0  0  0  0  0
   39.6720    6.1870   12.4380 C   0  0  0  0  0
   40.8440    5.9480   12.6920 O   0  0  0  0  0
   38.4460    7.5520   14.2010 C   0  0  0  0  0
   37.1510    7.6730   14.9920 C   0  0  0  0  0
   37.0600    7.1950   16.3070 C   0  0  0  0  0
   36.0180    8.2710   14.4430 C   0  0  0  0  0
   35.8760    7.3020   17.0350 C   0  0  0  0  0
   34.8160    8.3650   15.1420 C   0  0  0  0  0
   34.7460    7.8820   16.4530 C   0  0  0  0  0
   33.6750    7.9860   17.1180 O   0  0  0  0  0
   32.3820    7.0110   17.0320 P   0  0  0  0  0
   32.4360    6.1810   18.2610 O   0  0  0  0  0
   32.3950    6.1960   15.7380 O   0  0  0  0  0
   31.1920    7.9610   17.1130 O   0  0  0  0  0
   39.2410    6.4740   11.2170 N   0  0  0  0  0
   40.1090    6.5750   10.0460 C   0  0  0  0  0
   40.9190    7.8670   10.1070 C   0  0  0  0  0
   40.4260    8.8650   10.6340 O   0  0  0  0  0
   39.2590    6.4320    8.7880 C   0  0  0  0  0
   38.5310    5.0990    8.7750 C   0  0  0  0  0
   39.2150    4.0700    8.5640 O   0  0  0  0  0
   37.3160    5.0660    9.0420 O   0  0  0  0  0
   42.1550    7.8260    9.6090 N   0  0  0  0  0
   43.0490    8.9810    9.6150 C   0  0  0  0  0
   42.6420    9.9780    8.5420 C   0  0  0  0  0
   42.4230    9.6090    7.3930 O   0  0  0  0  0
   44.5110    8.5770    9.3680 C   0  0  0  0  0
   45.4930    9.7520    9.5080 C   0  0  0  0  0
   46.9520    9.3860    9.3210 C   0  0  0  0  0
   47.2710    8.5140    8.4770 O   0  0  0  0  0
   47.7890   10.0110   10.0120 O   0  0  0  0  0
   42.5490   11.2400    8.9380 N   0  0  0  0  0
   42.2800   12.3330    8.0410 C   0  0  0  0  0
   43.5470   12.5790    7.1750 C   0  0  0  0  0
   44.6720   12.5120    7.6790 O   0  0  0  0  0
   41.9170   13.5800    8.8850 C   0  0  0  0  0
   41.7260   14.7860    8.0290 C   0  0  0  0  0
   40.6440   13.2910    9.6840 C   0  0  0  0  0
   43.3470   12.8600    5.8810 N   0  0  0  0  0
   44.4430   13.1630    4.9480 C   0  0  0  0  0
   45.3370   14.2530    5.5350 C   0  0  0  0  0
   44.8390   15.2530    6.0920 O   0  0  0  0  0
   43.8830   13.5930    3.5720 C   0  0  0  0  0
   46.6500   14.0440    5.4050 N   0  0  0  0  0
   47.6500   14.9440    5.9910 C   0  0  0  0  0
   47.5530   16.3710    5.4690 C   0  0  0  0  0
   47.1610   16.5990    4.3230 O   0  0  0  0  0
   49.0810   14.4110    5.7630 C   0  0  0  0  0
   47.9370   17.3240    6.3180 N   0  0  0  0  0
   47.9750   18.7420    5.9340 C   0  0  0  0  0
   49.0210   19.4860    6.7770 C   0  0  0  0  0
   50.2220   19.4420    6.4700 O   0  0  0  0  0
   46.5770   19.3600    6.0960 C   0  0  0  0  0
   46.3110   20.5040    5.1380 C   0  0  0  0  0
   47.2150   21.2990    4.8500 O   0  0  0  0  0
   45.1570   20.6280    4.6750 O   0  0  0  0  0
   48.6367   20.1820    7.8432 O   0  0  0  0  0
   34.7977    0.4488   18.5876 H   0  0  0  0  0
   36.3267    0.1784   17.9828 H   0  0  0  0  0
   36.1075    1.2378   19.2502 H   0  0  0  0  0
   35.0834    1.5574   16.5198 H   0  0  0  0  0
   34.6023    3.9078   17.2795 H   0  0  0  0  0
   34.9382    3.3220   18.9725 H   0  0  0  0  0
   33.1858    0.4323   18.1380 H   0  0  0  0  0
   30.0018    3.2499   18.3178 H   0  0  0  0  0
   36.9352    1.5507   15.3980 H   0  0  0  0  0
   39.1786    3.3137   16.2941 H   0  0  0  0  0
   39.1735    1.5176   13.8809 H   0  0  0  0  0
   40.4369   -0.1027   15.2669 H   0  0  0  0  0
   38.6739    0.0897   15.7292 H   0  0  0  0  0
   40.9031    3.2647   14.0002 H   0  0  0  0  0
   41.3550    2.7195   15.6341 H   0  0  0  0  0
   41.6296    1.6557   14.2327 H   0  0  0  0  0
   41.0575    1.2453   17.1753 H   0  0  0  0  0
   39.3445    1.4323   17.6246 H   0  0  0  0  0
   40.1098   -0.1746   17.6822 H   0  0  0  0  0
   37.6284    5.9580   13.0542 H   0  0  0  0  0
   38.4406    8.3117   13.4194 H   0  0  0  0  0
   39.2803    7.6822   14.8903 H   0  0  0  0  0
   37.9315    6.7310   16.7688 H   0  0  0  0  0
   36.0739    8.6786   13.4336 H   0  0  0  0  0
   35.8317    6.9327   18.0596 H   0  0  0  0  0
   33.9392    8.8104   14.6719 H   0  0  0  0  0
   32.3583    6.7914   14.9858 H   0  0  0  0  0
   31.1576    8.4976   16.3177 H   0  0  0  0  0
   38.2420    6.6341   11.0874 H   0  0  0  0  0
   40.8416    5.7681   10.0266 H   0  0  0  0  0
   39.9113    6.4839    7.9163 H   0  0  0  0  0
   38.5216    7.2345    8.7699 H   0  0  0  0  0
   40.1222    4.3228    8.3779 H   0  0  0  0  0
   42.4906    6.9508    9.2067 H   0  0  0  0  0
   42.9678    9.4327   10.6037 H   0  0  0  0  0
   44.5837    8.2044    8.3463 H   0  0  0  0  0
   44.7792    7.8302   10.1153 H   0  0  0  0  0
   45.3896   10.1318   10.5245 H   0  0  0  0  0
   45.2434   10.4683    8.7253 H   0  0  0  0  0
   46.4779    8.1645    8.0643 H   0  0  0  0  0
   42.6745   11.4468    9.9289 H   0  0  0  0  0
   41.4450   12.1111    7.3765 H   0  0  0  0  0
   42.7428   13.7908    9.5645 H   0  0  0  0  0
   42.6478   14.9941    7.4857 H   0  0  0  0  0
   40.9185   14.6027    7.3202 H   0  0  0  0  0
   41.4726   15.6397    8.6576 H   0  0  0  0  0
   39.8292   13.0628    8.9969 H   0  0  0  0  0
   40.8152   12.4392   10.3422 H   0  0  0  0  0
   40.3841   14.1659   10.2799 H   0  0  0  0  0
   42.3907   12.8641    5.5261 H   0  0  0  0  0
   45.0404   12.2633    4.8003 H   0  0  0  0  0
   43.2793   12.7852    3.1583 H   0  0  0  0  0
   43.2662   14.4833    3.6943 H   0  0  0  0  0
   44.7102   13.8125    2.8970 H   0  0  0  0  0
   46.9688   13.2299    4.8797 H   0  0  0  0  0
   47.4320   14.9696    7.0587 H   0  0  0  0  0
   49.1802   13.4298    6.2273 H   0  0  0  0  0
   49.2705   14.3287    4.6928 H   0  0  0  0  0
   49.7991   15.0995    6.2085 H   0  0  0  0  0
   48.2132   17.0608    7.2640 H   0  0  0  0  0
   48.2656   18.8316    4.8873 H   0  0  0  0  0
   46.5080   19.7565    7.1090 H   0  0  0  0  0
   45.8459   18.5791    5.8868 H   0  0  0  0  0
   44.6010   19.9212    5.0110 H   0  0  0  0  0
   47.6841   20.1147    7.9416 H   0  0  0  0  0
  2  1  1  0  0  0
  2  5  1  0  0  0
  3  2  1  0  0  0
  3  4  2  0  0  0
  5  6  1  0  0  0
  6  7  4  0  0  0
  6  8  4  0  0  0
  8 10  4  0  0  0
 10  9  4  0  0  0
  7  9  4  0  0  0
 12 11  1  0  0  0
 12 15  1  0  0  0
 13 12  1  0  0  0
 13 14  2  0  0  0
 15 17  1  0  0  0
 15 16  1  0  0  0
 16 18  1  0  0  0
 11  3  1  0  0  0
 35 36  1  0  0  0
 36 39  1  0  0  0
 36 37  1  0  0  0
 37 38  2  0  0  0
 39 40  1  0  0  0
 40 41  1  0  0  0
 40 42  2  0  0  0
 43 44  1  0  0  0
 44 47  1  0  0  0
 44 45  1  0  0  0
 45 46  2  0  0  0
 47 48  1  0  0  0
 48 49  1  0  0  0
 49 51  2  0  0  0
 49 50  1  0  0  0
 37 43  1  0  0  0
 52 53  1  0  0  0
 53 56  1  0  0  0
 53 54  1  0  0  0
 54 55  2  0  0  0
 56 58  1  0  0  0
 56 57  1  0  0  0
 45 52  1  0  0  0
 59 60  1  0  0  0
 60 63  1  0  0  0
 60 61  1  0  0  0
 61 62  2  0  0  0
 54 59  1  0  0  0
 64 65  1  0  0  0
 65 68  1  0  0  0
 65 66  1  0  0  0
 66 67  2  0  0  0
 61 64  1  0  0  0
 69 70  1  0  0  0
 70 73  1  0  0  0
 70 71  1  0  0  0
 71 72  2  0  0  0
 73 74  1  0  0  0
 74 75  2  0  0  0
 74 76  1  0  0  0
 66 69  1  0  0  0
 19 13  2  0  0  0
 20 19  1  0  0  0
 21 20  1  0  0  0
 20 23  1  0  0  0
 21 22  2  0  0  0
 21 35  1  0  0  0
 23 24  1  0  0  0
 24 25  4  0  0  0
 24 26  4  0  0  0
 25 27  4  0  0  0
 26 28  4  0  0  0
 27 29  4  0  0  0
 28 29  4  0  0  0
 29 30  1  0  0  0
 30 31  1  0  0  0
 31 32  2  0  0  0
 31 33  1  0  0  0
 31 34  1  0  0  0
 71 77  1  0  0  0
  1 78  1  0  0  0
  1 79  1  0  0  0
  1 80  1  0  0  0
  2 81  1  0  0  0
  5 82  1  0  0  0
  5 83  1  0  0  0
  8 84  1  0  0  0
  9 85  1  0  0  0
 11 86  1  0  0  0
 12 87  1  0  0  0
 15 88  1  0  0  0
 16 89  1  0  0  0
 16 90  1  0  0  0
 17 91  1  0  0  0
 17 92  1  0  0  0
 17 93  1  0  0  0
 18 94  1  0  0  0
 18 95  1  0  0  0
 18 96  1  0  0  0
 20 97  1  0  0  0
 23 98  1  0  0  0
 23 99  1  0  0  0
 25100  1  0  0  0
 26101  1  0  0  0
 27102  1  0  0  0
 28103  1  0  0  0
 33104  1  0  0  0
 34105  1  0  0  0
 35106  1  0  0  0
 36107  1  0  0  0
 39108  1  0  0  0
 39109  1  0  0  0
 41110  1  0  0  0
 43111  1  0  0  0
 44112  1  0  0  0
 47113  1  0  0  0
 47114  1  0  0  0
 48115  1  0  0  0
 48116  1  0  0  0
 50117  1  0  0  0
 52118  1  0  0  0
 53119  1  0  0  0
 56120  1  0  0  0
 57121  1  0  0  0
 57122  1  0  0  0
 57123  1  0  0  0
 58124  1  0  0  0
 58125  1  0  0  0
 58126  1  0  0  0
 59127  1  0  0  0
 60128  1  0  0  0
 63129  1  0  0  0
 63130  1  0  0  0
 63131  1  0  0  0
 64132  1  0  0  0
 65133  1  0  0  0
 68134  1  0  0  0
 68135  1  0  0  0
 68136  1  0  0  0
 69137  1  0  0  0
 70138  1  0  0  0
 73139  1  0  0  0
 73140  1  0  0  0
 76141  1  0  0  0
 77142  1  0  0  0
M  END
$$$$
