2e94_ligand
  -I-interpret- 

 49 51  0  0  0  0  0  0  0  0999 V2000
   35.3180   53.0670   10.5620 C   0  0  0  0  0
   36.1370   53.5310   11.5840 C   0  0  0  0  0
   36.4880   52.6820   12.6290 C   0  0  0  0  0
   36.0170   51.3740   12.6480 C   0  0  0  0  0
   35.1970   50.9120   11.6240 C   0  0  0  0  0
   34.8460   51.7570   10.5760 C   0  0  0  0  0
   34.0920   51.2750    9.5140 C   0  0  0  0  0
   33.0200   50.4150    9.7350 C   0  0  0  0  0
   34.4090   51.6590    8.2140 C   0  0  0  0  0
   33.6640   51.1810    7.1430 C   0  0  0  0  0
   32.5970   50.3180    7.3690 C   0  0  0  0  0
   32.2710   49.9350    8.6650 C   0  0  0  0  0
   31.1760   49.1050    8.8820 C   0  0  0  0  0
   30.9280   48.0420    8.0190 C   0  0  0  0  0
   30.3640   49.2900    9.9960 C   0  0  0  0  0
   29.3100   48.4230   10.2570 C   0  0  0  0  0
   29.0600   47.3550    9.4030 C   0  0  0  0  0
   29.8730   47.1580    8.2800 N   0  0  0  0  0
   29.6790   45.9550    7.4370 C   0  0  0  0  0
   29.2480   46.2370    5.9940 C   0  0  0  0  0
   29.2590   44.5910    5.1110 P   0  0  0  0  0
   29.0390   44.8840    3.5440 O   0  0  0  0  0
   30.7590   44.0240    5.2380 O   0  0  0  0  0
   28.2570   43.6440    5.6500 O   0  0  0  0  0
   27.5660   47.0450    5.9070 P   0  0  0  0  0
   26.4770   46.0170    6.5000 O   0  0  0  0  0
   27.6150   48.2790    6.9420 O   0  0  0  0  0
   27.2420   47.5040    4.5380 O   0  0  0  0  0
   30.1860   47.1170    5.3640 O   0  0  0  0  0
   35.0432   53.7328    9.7439 H   0  0  0  0  0
   36.5036   54.5574   11.5672 H   0  0  0  0  0
   37.1315   53.0419   13.4318 H   0  0  0  0  0
   36.2910   50.7092   13.4672 H   0  0  0  0  0
   34.8288   49.8862   11.6426 H   0  0  0  0  0
   32.7659   50.1159   10.7519 H   0  0  0  0  0
   35.2440   52.3366    8.0358 H   0  0  0  0  0
   33.9157   51.4822    6.1261 H   0  0  0  0  0
   32.0150   49.9411    6.5280 H   0  0  0  0  0
   31.5550   47.8970    7.1393 H   0  0  0  0  0
   30.5565   50.1237   10.6713 H   0  0  0  0  0
   28.6790   48.5804   11.1317 H   0  0  0  0  0
   28.2342   46.6734    9.6068 H   0  0  0  0  0
   28.8787   45.3749    7.8965 H   0  0  0  0  0
   30.6432   45.4495    7.3840 H   0  0  0  0  0
   29.7082   45.5005    3.2378 H   0  0  0  0  0
   31.3744   44.6669    4.8781 H   0  0  0  0  0
   26.7365   45.7536    7.3859 H   0  0  0  0  0
   27.8268   47.9513    7.8191 H   0  0  0  0  0
   29.9070   47.2871    4.4613 H   0  0  0  0  0
  1  2  4  0  0  0
  1  6  4  0  0  0
  2  3  4  0  0  0
  3  4  4  0  0  0
  4  5  4  0  0  0
  5  6  4  0  0  0
  6  7  1  0  0  0
  7  8  4  0  0  0
  7  9  4  0  0  0
  8 12  4  0  0  0
  9 10  4  0  0  0
 10 11  4  0  0  0
 11 12  4  0  0  0
 12 13  1  0  0  0
 13 14  4  0  0  0
 13 15  4  0  0  0
 14 18  4  0  0  0
 15 16  4  0  0  0
 16 17  4  0  0  0
 17 18  4  0  0  0
 18 19  1  0  0  0
 19 20  1  0  0  0
 20 21  1  0  0  0
 20 25  1  0  0  0
 20 29  1  0  0  0
 21 22  1  0  0  0
 21 23  1  0  0  0
 21 24  2  0  0  0
 25 26  1  0  0  0
 25 27  1  0  0  0
 25 28  2  0  0  0
  1 30  1  0  0  0
  2 31  1  0  0  0
  3 32  1  0  0  0
  4 33  1  0  0  0
  5 34  1  0  0  0
  8 35  1  0  0  0
  9 36  1  0  0  0
 10 37  1  0  0  0
 11 38  1  0  0  0
 14 39  1  0  0  0
 15 40  1  0  0  0
 16 41  1  0  0  0
 17 42  1  0  0  0
 19 43  1  0  0  0
 19 44  1  0  0  0
 22 45  1  0  0  0
 23 46  1  0  0  0
 26 47  1  0  0  0
 27 48  1  0  0  0
 29 49  1  0  0  0
M  END
$$$$
