2fou_ligand
  -I-interpret- 

 57 59  0  0  0  0  0  0  0  0999 V2000
   10.6370   -0.5310   14.4470 S   0  0  0  0  0
   10.1760    0.7480   13.9930 O   0  0  0  0  0
    9.6920   -1.5590   14.7500 O   0  0  0  0  0
   11.4540   -0.2620   15.8040 N   0  0  0  0  0
   13.6050   -2.1760   11.4480 C   0  0  0  0  0
   12.9790   -3.0090   12.3630 C   0  0  0  0  0
   12.0650   -2.4600   13.2340 C   0  0  0  0  0
   11.7270   -1.1450   13.2010 C   0  0  0  0  0
   12.3450   -0.2820   12.3000 C   0  0  0  0  0
   13.2520   -0.8330   11.4460 C   0  0  0  0  0
   14.6520   -2.6940   10.4930 C   0  0  0  0  0
   14.3520   -4.0310    9.8350 C   0  0  0  0  0
   13.4160   -3.6420    8.7960 N   0  0  0  0  0
   13.6070   -3.1400    7.5810 C   0  0  0  0  0
   14.6660   -2.5130    7.2610 O   0  0  0  0  0
   12.5380   -3.0630    6.5210 C   0  0  0  0  0
   11.2170   -3.4110    6.6430 C   0  0  0  0  0
   10.3500   -3.2810    5.5540 C   0  0  0  0  0
   10.8330   -2.7950    4.3530 C   0  0  0  0  0
   12.1650   -2.4450    4.2390 C   0  0  0  0  0
   13.0110   -2.5900    5.3100 C   0  0  0  0  0
   12.7180   -1.9530    3.0860 N   0  0  0  0  0
   13.6720   -2.0230    2.1590 C   0  0  0  0  0
   14.7580   -2.6130    2.3590 O   0  0  0  0  0
   13.4840   -1.1560    0.9110 C   0  0  0  0  0
   12.3100   -0.3140    1.0710 N   0  0  0  0  0
   11.0360   -0.9140    0.7440 C   0  0  0  0  0
   10.2620    0.3760    0.9570 C   0  0  0  0  0
    9.4970    0.7150    0.0400 O   0  0  0  0  0
   10.5240    0.9180    2.0510 Du  0  0  0  0  0
   12.4460    1.0430    1.5090 C   0  0  0  0  0
   13.8360    1.1550    2.1080 C   0  0  0  0  0
   14.7210    1.5940    1.3410 O   0  0  0  0  0
   13.9410    1.1320    3.3570 Du  0  0  0  0  0
   12.1730    0.3530    3.0130 Cu  0  0  0  0  0
   11.5491    0.6883   16.1622 H   0  0  0  0  0
   11.8776   -1.0415   16.3073 H   0  0  0  0  0
   13.2056   -4.0748   12.3920 H   0  0  0  0  0
   11.5954   -3.1043   13.9773 H   0  0  0  0  0
   12.1142    0.7831   12.2790 H   0  0  0  0  0
   13.7301   -0.1796   10.7162 H   0  0  0  0  0
   15.5577   -2.8394   11.0818 H   0  0  0  0  0
   14.7178   -1.9641    9.6862 H   0  0  0  0  0
   13.9528   -4.7753   10.5240 H   0  0  0  0  0
   15.2389   -4.5375    9.4544 H   0  0  0  0  0
   12.4359   -3.7786    9.0431 H   0  0  0  0  0
   10.8414   -3.7906    7.5932 H   0  0  0  0  0
    9.3010   -3.5607    5.6510 H   0  0  0  0  0
   10.1649   -2.6882    3.4984 H   0  0  0  0  0
   14.0644   -2.3303    5.2055 H   0  0  0  0  0
   12.1243   -1.1711    2.8094 H   0  0  0  0  0
   13.3512   -1.7992    0.0411 H   0  0  0  0  0
   14.3633   -0.5270    0.7725 H   0  0  0  0  0
   10.7267   -1.7932    1.3092 H   0  0  0  0  0
   10.9400   -1.4126   -0.2205 H   0  0  0  0  0
   11.6800    1.2991    2.2410 H   0  0  0  0  0
   12.3172    1.7391    0.6801 H   0  0  0  0  0
  1  2  2  0  0  0
  1  3  2  0  0  0
  1  4  1  0  0  0
  8  1  1  0  0  0
  6  5  4  0  0  0
  5 10  4  0  0  0
  5 11  1  0  0  0
  7  6  4  0  0  0
  8  7  4  0  0  0
  8  9  4  0  0  0
  9 10  4  0  0  0
 11 12  1  0  0  0
 12 13  1  0  0  0
 13 14  1  0  0  0
 14 15  2  0  0  0
 14 16  1  0  0  0
 16 17  4  0  0  0
 16 21  4  0  0  0
 17 18  4  0  0  0
 18 19  4  0  0  0
 19 20  4  0  0  0
 21 20  4  0  0  0
 20 22  1  0  0  0
 22 23  1  0  0  0
 23 24  2  0  0  0
 23 25  1  0  0  0
 25 26  1  0  0  0
 26 27  1  0  0  0
 26 31  1  0  0  0
 27 28  1  0  0  0
 28 29  2  0  0  0
 28 30  1  0  0  0
 31 32  1  0  0  0
 32 33  2  0  0  0
 32 34  1  0  0  0
 30 35  1  0  0  0
 34 35  1  0  0  0
  4 36  1  0  0  0
  4 37  1  0  0  0
  6 38  1  0  0  0
  7 39  1  0  0  0
  9 40  1  0  0  0
 10 41  1  0  0  0
 11 42  1  0  0  0
 11 43  1  0  0  0
 12 44  1  0  0  0
 12 45  1  0  0  0
 13 46  1  0  0  0
 17 47  1  0  0  0
 18 48  1  0  0  0
 19 49  1  0  0  0
 21 50  1  0  0  0
 22 51  1  0  0  0
 25 52  1  0  0  0
 25 53  1  0  0  0
 27 54  1  0  0  0
 27 55  1  0  0  0
 31 56  1  0  0  0
 31 57  1  0  0  0
M  END
$$$$
