2frd_ligand
  -I-interpret- 

 72 76  0  0  0  0  0  0  0  0999 V2000
   -7.6530    6.4030   25.2500 O   0  0  0  0  0
   -7.7190    6.4160   26.8630 P   0  0  0  0  0
   -6.9600    5.2840   27.4450 O   0  0  0  0  0
   -7.2640    7.7170   27.4120 O   0  0  0  0  0
   -9.2940    6.2150   27.1210 O   0  0  0  0  0
   -9.9500    5.0970   26.5680 C   0  0  0  0  0
  -11.1040    5.4780   25.6390 C   0  0  0  0  0
  -12.2340    5.7990   26.4200 O   0  0  0  0  0
  -10.8840    6.6600   24.7010 C   0  0  0  0  0
  -10.8950    6.2050   23.3750 O   0  0  0  0  0
  -12.0490    7.5960   24.9260 C   0  0  0  0  0
  -12.6700    7.9400   23.7120 O   0  0  0  0  0
  -13.0000    6.8190   25.8200 C   0  0  0  0  0
  -13.6390    7.6290   26.8800 N   0  0  0  0  0
  -13.0350    8.4320   27.8180 C   0  0  0  0  0
  -13.9940    8.9760   28.6070 N   0  0  0  0  0
  -15.2040    8.5200   28.1990 C   0  0  0  0  0
  -16.5120    8.7370   28.6450 C   0  0  0  0  0
  -16.7400    9.4820   29.7220 N   0  0  0  0  0
  -17.5690    8.1090   28.0040 N   0  0  0  0  0
  -17.3260    7.2710   26.9300 C   0  0  0  0  0
  -16.0310    7.0610   26.4990 N   0  0  0  0  0
  -14.9890    7.6700   27.1190 C   0  0  0  0  0
   -6.6880    5.4570   24.3710 P   0  0  0  0  0
   -7.3310    4.1470   24.1520 O   0  0  0  0  0
   -5.3160    5.5110   24.9200 O   0  0  0  0  0
   -6.7100    6.2550   22.9780 O   0  0  0  0  0
   -7.9180    6.5970   22.3400 C   0  0  0  0  0
   -7.6220    6.9500   20.8890 C   0  0  0  0  0
   -6.4040    7.6710   20.8190 O   0  0  0  0  0
   -7.4740    5.7110   20.0120 C   0  0  0  0  0
   -8.5890    5.5400   19.1630 O   0  0  0  0  0
   -6.2030    5.9340   19.2140 C   0  0  0  0  0
   -6.4690    6.0220   17.8330 O   0  0  0  0  0
   -5.6130    7.2440   19.7250 C   0  0  0  0  0
   -4.1980    7.0350   20.1060 N   0  0  0  0  0
   -3.2100    7.6440   19.3740 C   0  0  0  0  0
   -1.8690    7.4550   19.7060 C   0  0  0  0  0
   -0.8020    8.0780   18.8440 C   0  0  0  0  0
   -1.0960    8.4000   17.5010 O   0  0  0  0  0
    0.4060    8.3230   19.3440 N   0  0  0  0  0
   -1.5460    6.6350   20.7880 C   0  0  0  0  0
   -2.5530    6.0190   21.5210 C   0  0  0  0  0
   -3.8810    6.2280   21.1690 C   0  0  0  0  0
   -7.7746    8.4266   27.0153 H   0  0  0  0  0
  -10.3653    4.5157   27.3912 H   0  0  0  0  0
   -9.2198    4.5421   25.9790 H   0  0  0  0  0
  -11.2177    4.6001   25.0031 H   0  0  0  0  0
   -9.9315    7.1557   24.8886 H   0  0  0  0  0
  -10.7567    6.9472   22.7820 H   0  0  0  0  0
  -11.7338    8.5374   25.3759 H   0  0  0  0  0
  -13.4041    8.5336   23.8863 H   0  0  0  0  0
  -13.8191    6.4463   25.2050 H   0  0  0  0  0
  -11.9626    8.6031   27.9119 H   0  0  0  0  0
  -15.9589    9.8992   30.2282 H   0  0  0  0  0
  -17.6960    9.6365   30.0422 H   0  0  0  0  0
  -18.1560    6.7771   26.4247 H   0  0  0  0  0
   -5.0415    6.4272   25.0028 H   0  0  0  0  0
   -8.3732    7.4503   22.8428 H   0  0  0  0  0
   -8.6097    5.7557   22.3823 H   0  0  0  0  0
   -8.4630    7.5409   20.5263 H   0  0  0  0  0
   -7.4208    4.8019   20.6110 H   0  0  0  0  0
   -8.4637    4.7538   18.6266 H   0  0  0  0  0
   -5.5138    5.0993   19.3422 H   0  0  0  0  0
   -5.6466    6.1627   17.3582 H   0  0  0  0  0
   -5.6245    8.0168   18.9564 H   0  0  0  0  0
   -3.4749    8.2789   18.5285 H   0  0  0  0  0
    1.1250    8.7454   18.7566 H   0  0  0  0  0
    0.6133    8.0885   20.3148 H   0  0  0  0  0
   -0.5019    6.4775   21.0586 H   0  0  0  0  0
   -2.3032    5.3768   22.3656 H   0  0  0  0  0
   -4.6752    5.7480   21.7408 H   0  0  0  0  0
  1  2  1  0  0  0
  1 24  1  0  0  0
  2  3  2  0  0  0
  2  4  1  0  0  0
  2  5  1  0  0  0
  5  6  1  0  0  0
  6  7  1  0  0  0
  7  8  1  0  0  0
  7  9  1  0  0  0
  8 13  1  0  0  0
  9 10  1  0  0  0
  9 11  1  0  0  0
 11 12  1  0  0  0
 11 13  1  0  0  0
 13 14  1  0  0  0
 14 15  4  0  0  0
 14 23  4  0  0  0
 15 16  4  0  0  0
 16 17  4  0  0  0
 17 18  4  0  0  0
 17 23  4  0  0  0
 18 19  1  0  0  0
 18 20  4  0  0  0
 20 21  4  0  0  0
 21 22  4  0  0  0
 22 23  4  0  0  0
 24 25  2  0  0  0
 24 26  1  0  0  0
 24 27  1  0  0  0
 27 28  1  0  0  0
 28 29  1  0  0  0
 29 30  1  0  0  0
 29 31  1  0  0  0
 30 35  1  0  0  0
 31 32  1  0  0  0
 31 33  1  0  0  0
 33 34  1  0  0  0
 33 35  1  0  0  0
 35 36  1  0  0  0
 36 37  4  0  0  0
 36 44  4  0  0  0
 37 38  4  0  0  0
 38 39  1  0  0  0
 38 42  4  0  0  0
 39 40  2  0  0  0
 39 41  1  0  0  0
 42 43  4  0  0  0
 43 44  4  0  0  0
  4 45  1  0  0  0
  6 46  1  0  0  0
  6 47  1  0  0  0
  7 48  1  0  0  0
  9 49  1  0  0  0
 10 50  1  0  0  0
 11 51  1  0  0  0
 12 52  1  0  0  0
 13 53  1  0  0  0
 15 54  1  0  0  0
 19 55  1  0  0  0
 19 56  1  0  0  0
 21 57  1  0  0  0
 26 58  1  0  0  0
 28 59  1  0  0  0
 28 60  1  0  0  0
 29 61  1  0  0  0
 31 62  1  0  0  0
 32 63  1  0  0  0
 33 64  1  0  0  0
 34 65  1  0  0  0
 35 66  1  0  0  0
 37 67  1  0  0  0
 41 68  1  0  0  0
 41 69  1  0  0  0
 42 70  1  0  0  0
 43 71  1  0  0  0
 44 72  1  0  0  0
M  END
$$$$
