2gej_ligand
  -I-interpret- 

 63 66  0  0  0  0  0  0  0  0999 V2000
    3.8970   50.7450   29.0900 N   0  0  0  0  0
    2.7850   50.2180   29.5620 C   0  0  0  0  0
    2.1080   50.9870   30.4790 N   0  0  0  0  0
    2.3400   49.0060   29.1880 N   0  0  0  0  0
    1.1770   48.5670   29.6750 C   0  0  0  0  0
    0.4210   49.3130   30.5890 C   0  0  0  0  0
    0.8950   50.5660   31.0030 C   0  0  0  0  0
    0.2980   51.3090   31.8090 O   0  0  0  0  0
   -0.6790   48.5960   30.9040 N   0  0  0  0  0
   -0.6290   47.4460   30.2110 C   0  0  0  0  0
    0.5100   47.4330   29.4740 N   0  0  0  0  0
    0.9030   46.3890   28.5600 C   0  0  0  0  0
    1.1970   45.1680   29.3470 C   0  0  0  0  0
    2.5580   45.2820   29.7140 O   0  0  0  0  0
    0.9410   44.1010   28.2610 C   0  0  0  0  0
    2.0160   43.9440   27.3050 O   0  0  0  0  0
   -0.2680   44.7010   27.4790 C   0  0  0  0  0
   -0.3730   46.0720   27.9330 O   0  0  0  0  0
   -1.5400   43.9270   27.8040 C   0  0  0  0  0
   -1.6910   43.7040   29.1710 O   0  0  0  0  0
   -3.0770   44.0560   29.8520 P   0  0  0  0  0
   -3.1420   43.4550   31.2510 O   0  0  0  0  0
   -3.3660   45.5330   29.8420 O   0  0  0  0  0
   -4.0670   43.0490   29.0530 O   0  0  0  0  0
   -5.3360   43.5260   28.2250 P   0  0  0  0  0
   -6.3190   44.1200   29.4230 O   0  0  0  0  0
   -4.9920   44.5010   27.1840 O   0  0  0  0  0
   -5.9630   42.1740   27.6880 O   0  0  0  0  0
   -5.3770   41.4960   26.5960 C   0  0  0  0  0
   -4.0130   41.1410   27.0330 O   0  0  0  0  0
   -3.9440   40.0680   28.0260 C   0  0  0  0  0
   -2.4510   39.9310   28.0760 C   0  0  0  0  0
   -2.1020   38.7740   27.3930 O   0  0  0  0  0
   -6.3110   40.3110   26.2860 C   0  0  0  0  0
   -5.8500   39.6130   25.1620 O   0  0  0  0  0
   -6.2710   39.2660   27.3780 C   0  0  0  0  0
   -7.1340   38.1450   27.0260 O   0  0  0  0  0
   -4.7770   38.8280   27.6260 C   0  0  0  0  0
   -4.7000   37.8280   28.6650 O   0  0  0  0  0
    4.2010   51.6648   29.4092 H   0  0  0  0  0
    2.8819   48.4312   28.5428 H   0  0  0  0  0
   -1.3787   46.6552   30.2366 H   0  0  0  0  0
    1.7368   46.6676   27.9156 H   0  0  0  0  0
    0.6366   44.9682   30.2603 H   0  0  0  0  0
    2.8142   44.5148   30.2311 H   0  0  0  0  0
    0.8060   43.1236   28.7243 H   0  0  0  0  0
    1.7796   43.2660   26.6678 H   0  0  0  0  0
   -0.1293   44.6440   26.3994 H   0  0  0  0  0
   -1.4811   42.9579   27.3086 H   0  0  0  0  0
   -2.3905   44.5170   27.4624 H   0  0  0  0  0
   -2.9511   42.5154   31.2036 H   0  0  0  0  0
   -6.4977   43.4263   30.0621 H   0  0  0  0  0
   -5.2737   42.0615   25.6699 H   0  0  0  0  0
   -4.3881   40.2416   29.0062 H   0  0  0  0  0
   -2.1131   39.8733   29.1107 H   0  0  0  0  0
   -1.9781   40.7976   27.6139 H   0  0  0  0  0
   -1.1482   38.6673   27.4131 H   0  0  0  0  0
   -7.3033   40.7443   26.1609 H   0  0  0  0  0
   -6.4397   38.8778   24.9792 H   0  0  0  0  0
   -6.6525   39.6780   28.3123 H   0  0  0  0  0
   -7.1026   37.4869   27.7242 H   0  0  0  0  0
   -4.3793   38.3950   26.7082 H   0  0  0  0  0
   -5.2192   37.0620   28.4095 H   0  0  0  0  0
  1  2  2  0  0  0
  2  3  4  0  0  0
  2  4  1  0  0  0
  3  7  1  0  0  0
  4  5  1  0  0  0
  5  6  4  0  0  0
  5 11  4  0  0  0
  6  7  1  0  0  0
  6  9  4  0  0  0
  7  8  2  0  0  0
  9 10  4  0  0  0
 10 11  4  0  0  0
 11 12  1  0  0  0
 12 13  1  0  0  0
 12 18  1  0  0  0
 13 14  1  0  0  0
 13 15  1  0  0  0
 15 16  1  0  0  0
 15 17  1  0  0  0
 17 18  1  0  0  0
 17 19  1  0  0  0
 19 20  1  0  0  0
 20 21  1  0  0  0
 21 22  1  0  0  0
 21 23  2  0  0  0
 21 24  1  0  0  0
 24 25  1  0  0  0
 25 26  1  0  0  0
 25 27  2  0  0  0
 25 28  1  0  0  0
 28 29  1  0  0  0
 29 30  1  0  0  0
 29 34  1  0  0  0
 30 31  1  0  0  0
 31 32  1  0  0  0
 31 38  1  0  0  0
 32 33  1  0  0  0
 34 35  1  0  0  0
 34 36  1  0  0  0
 36 37  1  0  0  0
 36 38  1  0  0  0
 38 39  1  0  0  0
  1 40  1  0  0  0
  4 41  1  0  0  0
 10 42  1  0  0  0
 12 43  1  0  0  0
 13 44  1  0  0  0
 14 45  1  0  0  0
 15 46  1  0  0  0
 16 47  1  0  0  0
 17 48  1  0  0  0
 19 49  1  0  0  0
 19 50  1  0  0  0
 22 51  1  0  0  0
 26 52  1  0  0  0
 29 53  1  0  0  0
 31 54  1  0  0  0
 32 55  1  0  0  0
 32 56  1  0  0  0
 33 57  1  0  0  0
 34 58  1  0  0  0
 35 59  1  0  0  0
 36 60  1  0  0  0
 37 61  1  0  0  0
 38 62  1  0  0  0
 39 63  1  0  0  0
M  END
$$$$
