2gek_ligand
  -I-interpret- 

 42 44  0  0  0  0  0  0  0  0999 V2000
   -5.1640   43.9720   28.8040 P   0  0  0  0  0
   -5.1780   45.4160   29.2620 O   0  0  0  0  0
   -6.3980   43.5090   29.5760 O   0  0  0  0  0
   -5.1520   43.8490   27.2730 O   0  0  0  0  0
   -3.9550   42.9370   29.2700 O   0  0  0  0  0
   -2.6910   43.5720   30.0080 P   0  0  0  0  0
   -2.8890   45.0290   29.7160 O   0  0  0  0  0
   -2.6490   43.5600   31.5330 O   0  0  0  0  0
   -1.3680   43.1960   29.1710 O   0  0  0  0  0
   -1.1930   43.9140   27.9680 C   0  0  0  0  0
    0.2110   44.3660   27.5740 C   0  0  0  0  0
    0.3200   45.7700   27.7630 O   0  0  0  0  0
    1.3850   43.7680   28.2910 C   0  0  0  0  0
    2.3590   43.7700   27.2680 O   0  0  0  0  0
    1.6970   44.7990   29.3480 C   0  0  0  0  0
    3.0730   44.8520   29.7150 O   0  0  0  0  0
    1.3650   46.1010   28.6530 C   0  0  0  0  0
    0.8580   47.1010   29.6280 N   0  0  0  0  0
   -0.2620   47.0360   30.4070 C   0  0  0  0  0
   -0.3370   48.1810   31.1140 N   0  0  0  0  0
    0.7220   48.9530   30.8000 C   0  0  0  0  0
    1.2550   50.2800   31.1840 C   0  0  0  0  0
    0.6030   50.9290   32.0640 O   0  0  0  0  0
    2.4160   50.7240   30.5910 N   0  0  0  0  0
    3.0610   49.9970   29.6700 C   0  0  0  0  0
    4.2030   50.4300   29.0810 N   0  0  0  0  0
    2.6170   48.7720   29.3060 N   0  0  0  0  0
    1.4970   48.2370   29.8210 C   0  0  0  0  0
   -6.5523   42.5776   29.4017 H   0  0  0  0  0
   -5.1434   42.9209   27.0277 H   0  0  0  0  0
   -2.5233   42.6596   31.8415 H   0  0  0  0  0
   -1.7566   44.8366   28.1069 H   0  0  0  0  0
   -1.4967   43.2230   27.1816 H   0  0  0  0  0
    0.2824   44.0181   26.5435 H   0  0  0  0  0
    1.2817   42.7834   28.7471 H   0  0  0  0  0
    3.1784   43.4023   27.6071 H   0  0  0  0  0
    1.1491   44.5809   30.2647 H   0  0  0  0  0
    3.1979   45.5256   30.3875 H   0  0  0  0  0
    2.2386   46.5288   28.1611 H   0  0  0  0  0
   -0.9684   46.2069   30.4493 H   0  0  0  0  0
    4.5967   51.3357   29.3361 H   0  0  0  0  0
    3.1491   48.2377   28.6191 H   0  0  0  0  0
  1  2  2  0  0  0
  1  3  1  0  0  0
  1  4  1  0  0  0
  1  5  1  0  0  0
  5  6  1  0  0  0
  6  7  2  0  0  0
  6  8  1  0  0  0
  6  9  1  0  0  0
  9 10  1  0  0  0
 10 11  1  0  0  0
 11 12  1  0  0  0
 11 13  1  0  0  0
 12 17  1  0  0  0
 13 14  1  0  0  0
 13 15  1  0  0  0
 15 16  1  0  0  0
 15 17  1  0  0  0
 17 18  1  0  0  0
 18 19  4  0  0  0
 18 28  4  0  0  0
 19 20  4  0  0  0
 20 21  4  0  0  0
 21 22  1  0  0  0
 21 28  4  0  0  0
 22 23  2  0  0  0
 22 24  1  0  0  0
 24 25  4  0  0  0
 25 26  2  0  0  0
 25 27  1  0  0  0
 27 28  1  0  0  0
  3 29  1  0  0  0
  4 30  1  0  0  0
  8 31  1  0  0  0
 10 32  1  0  0  0
 10 33  1  0  0  0
 11 34  1  0  0  0
 13 35  1  0  0  0
 14 36  1  0  0  0
 15 37  1  0  0  0
 16 38  1  0  0  0
 17 39  1  0  0  0
 19 40  1  0  0  0
 26 41  1  0  0  0
 27 42  1  0  0  0
M  END
$$$$
