2hmh_ligand
  -I-interpret- 

171172  0  0  0  0  0  0  0  0999 V2000
   31.5070   13.2800   47.4740 N   0  3  0  0  0
   30.0830   13.1510   47.7840 C   0  0  0  0  0
   29.5720   11.7860   47.3380 C   0  0  0  0  0
   29.8100   11.3660   46.2010 O   0  0  0  0  0
   29.2620   14.2400   47.0800 C   0  0  0  0  0
   29.8070   15.5380   47.2450 O   0  0  0  0  0
   28.8810   11.0890   48.2380 N   0  0  0  0  0
   28.1960    9.8610   47.8740 C   0  0  0  0  0
   27.0000   10.2410   46.9980 C   0  0  0  0  0
   26.2020   11.1110   47.3660 O   0  0  0  0  0
   27.7870    9.0310   49.1230 C   0  0  0  0  0
   28.9180    8.2700   49.5670 O   0  0  0  0  0
   26.6530    8.0630   48.8140 C   0  0  0  0  0
   26.9240    9.6120   45.8280 N   0  0  0  0  0
   25.8810    9.8740   44.8380 C   0  0  0  0  0
   24.8590    8.7200   44.8260 C   0  0  0  0  0
   25.0930    7.6640   44.2370 O   0  0  0  0  0
   26.4960   10.1110   43.4230 C   0  0  0  0  0
   25.4170   10.4450   42.4110 C   0  0  0  0  0
   27.5270   11.2350   43.4700 C   0  0  0  0  0
   23.7260    8.9490   45.4750 N   0  0  0  0  0
   22.7140    7.9080   45.6760 C   0  0  0  0  0
   21.6200    7.9280   44.6110 C   0  0  0  0  0
   21.0290    8.9720   44.3370 O   0  0  0  0  0
   22.0890    8.0410   47.0680 C   0  0  0  0  0
   23.0550    7.6890   48.2030 C   0  0  0  0  0
   22.5030    8.0430   49.5730 C   0  0  0  0  0
   21.5280    7.3870   50.0020 O   0  0  0  0  0
   23.0450    8.9780   50.2120 O   0  0  0  0  0
   21.3530    6.7630   44.0300 N   0  0  0  0  0
   20.2900    6.6280   43.0340 C   0  0  0  0  0
   19.0090    6.0760   43.6360 C   0  0  0  0  0
   19.0400    5.3430   44.6280 O   0  0  0  0  0
   20.7510    5.9200   41.7560 C   0  0  0  0  0
   21.6560    6.8060   40.9260 C   0  0  0  0  0
   23.0120    6.9340   41.2380 C   0  0  0  0  0
   21.1540    7.5520   39.8600 C   0  0  0  0  0
   23.8450    7.7550   40.5030 C   0  0  0  0  0
   21.9820    8.3960   39.1260 C   0  0  0  0  0
   23.3320    8.4880   39.4450 C   0  0  0  0  0
   24.1050    9.2380   38.8200 O   0  0  0  0  0
   24.5750    8.9330   37.3260 P   0  0  0  0  0
   25.4320   10.0240   36.8320 O   0  0  0  0  0
   23.3490    8.7810   36.3970 O   0  0  0  0  0
   25.3810    7.6210   37.3350 O   0  0  0  0  0
   17.8800    6.4600   43.0400 N   0  0  0  0  0
   16.5760    6.0020   43.4710 C   0  0  0  0  0
   15.6880    5.8030   42.2490 C   0  0  0  0  0
   16.0090    6.2550   41.1500 O   0  0  0  0  0
   15.9370    7.0080   44.4400 C   0  0  0  0  0
   16.8050    7.3040   45.5190 O   0  0  0  0  0
   14.5850    5.0940   42.4440 N   0  0  0  0  0
   13.5680    4.9820   41.4190 C   0  0  0  0  0
   12.2580    5.4530   42.0380 C   0  0  0  0  0
   12.1350    5.5060   43.2770 O   0  0  0  0  0
   13.4520    3.5360   40.8340 C   0  0  0  0  0
   12.9150    2.6610   41.8170 O   0  0  0  0  0
   14.7920    2.9920   40.4150 C   0  0  0  0  0
   11.2970    5.8200   41.1860 N   0  0  0  0  0
   10.0290    6.3680   41.6360 C   0  0  0  0  0
    8.9780    5.2590   41.7350 C   0  0  0  0  0
    8.8390    4.4630   40.8210 O   0  0  0  0  0
    9.5040    7.4810   40.6600 C   0  0  0  0  0
    8.2850    8.1590   41.2300 C   0  0  0  0  0
   10.5750    8.5200   40.4000 C   0  0  0  0  0
    8.2460    5.2090   42.8480 N   0  0  0  0  0
    7.0580    4.3550   42.9220 C   0  0  0  0  0
    5.8760    5.1480   42.4210 C   0  0  0  0  0
    5.4700    6.1310   43.0370 O   0  0  0  0  0
    6.7780    3.7950   44.3480 C   0  0  0  0  0
    5.6560    2.7450   44.3010 C   0  0  0  0  0
    8.0300    3.2210   44.9550 C   0  0  0  0  0
    5.3550    4.7390   41.2680 N   0  0  0  0  0
    4.1550    5.3330   40.6960 C   0  0  0  0  0
    2.9340    4.5460   41.1670 C   0  0  0  0  0
    2.6180    3.4930   40.6240 O   0  0  0  0  0
    4.2390    5.3640   39.1600 C   0  0  0  0  0
    5.3600    6.2150   38.6290 C   0  0  0  0  0
    6.5830    5.6940   38.2610 N   0  0  0  0  0
    5.4330    7.5470   38.3900 C   0  0  0  0  0
    7.3590    6.6680   37.8100 C   0  0  0  0  0
    6.6910    7.8060   37.8930 N   0  0  0  0  0
    2.2750    5.0470   42.2080 N   0  0  0  0  0
    1.0780    4.4060   42.7510 C   0  0  0  0  0
    0.0770    5.4380   43.2650 C   0  0  0  0  0
    0.2990    6.6550   43.1430 O   0  0  0  0  0
    1.4550    3.4350   43.8740 C   0  0  0  0  0
    2.3580    2.4370   43.4210 O   0  0  0  0  0
   -0.9710    5.0790   43.8420 O   0  0  0  0  0
   32.0262   12.5451   47.9543 H   0  0  0  0  0
   31.6438   13.1922   46.4670 H   0  0  0  0  0
   31.8402   14.1924   47.7853 H   0  0  0  0  0
   29.9675   13.2605   48.8623 H   0  0  0  0  0
   28.2646   14.2403   47.5196 H   0  0  0  0  0
   29.2572   14.0150   46.0135 H   0  0  0  0  0
   29.2556   16.1760   46.7862 H   0  0  0  0  0
   28.8319   11.4235   49.2003 H   0  0  0  0  0
   28.8642    9.2082   47.3123 H   0  0  0  0  0
   27.4487    9.7275   49.8902 H   0  0  0  0  0
   28.6724    7.7545   50.3387 H   0  0  0  0  0
   26.9697    7.3717   48.0330 H   0  0  0  0  0
   26.3986    7.5040   49.7145 H   0  0  0  0  0
   25.7817    8.6228   48.4740 H   0  0  0  0  0
   27.6310    8.9098   45.6104 H   0  0  0  0  0
   25.3573   10.7882   45.1172 H   0  0  0  0  0
   26.9883    9.1890   43.1138 H   0  0  0  0  0
   24.7085    9.6188   42.3512 H   0  0  0  0  0
   24.8960   11.3503   42.7227 H   0  0  0  0  0
   25.8737   10.6051   41.4343 H   0  0  0  0  0
   27.0461   12.1536   43.8062 H   0  0  0  0  0
   28.3243   10.9662   44.1629 H   0  0  0  0  0
   27.9444   11.3853   42.4744 H   0  0  0  0  0
   23.5524    9.8825   45.8476 H   0  0  0  0  0
   23.2271    6.9503   45.5883 H   0  0  0  0  0
   21.2518    7.3450   47.1207 H   0  0  0  0  0
   21.7939    9.0822   47.1981 H   0  0  0  0  0
   23.9706    8.2611   48.0529 H   0  0  0  0  0
   23.2231    6.6123   48.1778 H   0  0  0  0  0
   23.7702    9.3382   49.6963 H   0  0  0  0  0
   21.9029    5.9426   44.2848 H   0  0  0  0  0
   20.0370    7.6344   42.7006 H   0  0  0  0  0
   19.8712    5.6724   41.1621 H   0  0  0  0  0
   21.3073    5.0261   42.0381 H   0  0  0  0  0
   23.4211    6.3742   42.0791 H   0  0  0  0  0
   20.0989    7.4729   39.5982 H   0  0  0  0  0
   24.9032    7.8260   40.7547 H   0  0  0  0  0
   21.5733    8.9831   38.3036 H   0  0  0  0  0
   22.7908    8.0697   36.7195 H   0  0  0  0  0
   24.8251    6.9075   37.6566 H   0  0  0  0  0
   17.9372    7.1017   42.2492 H   0  0  0  0  0
   16.6865    5.0550   43.9992 H   0  0  0  0  0
   15.0217    6.5717   44.8401 H   0  0  0  0  0
   15.7307    7.9303   43.8970 H   0  0  0  0  0
   16.3803    7.9334   46.1065 H   0  0  0  0  0
   14.4496    4.6170   43.3354 H   0  0  0  0  0
   13.8357    5.6033   40.5643 H   0  0  0  0  0
   12.8019    3.5941   39.9610 H   0  0  0  0  0
   12.8462    1.7756   41.4524 H   0  0  0  0  0
   15.2215    3.6378   39.6491 H   0  0  0  0  0
   15.4558    2.9596   41.2789 H   0  0  0  0  0
   14.6653    1.9861   40.0147 H   0  0  0  0  0
   11.4590    5.7118   40.1848 H   0  0  0  0  0
   10.1964    6.8128   42.6169 H   0  0  0  0  0
    9.2403    6.9960   39.7202 H   0  0  0  0  0
    7.4969    7.4210   41.3796 H   0  0  0  0  0
    8.5398    8.6190   42.1848 H   0  0  0  0  0
    7.9396    8.9257   40.5365 H   0  0  0  0  0
   10.8633    8.9864   41.3421 H   0  0  0  0  0
   11.4439    8.0396   39.9501 H   0  0  0  0  0
   10.1859    9.2791   39.7214 H   0  0  0  0  0
    8.5156    5.7706   43.6557 H   0  0  0  0  0
    7.2360    3.4789   42.2984 H   0  0  0  0  0
    6.4488    4.6182   44.9821 H   0  0  0  0  0
    4.7462    3.2044   43.9145 H   0  0  0  0  0
    5.9553    1.9242   43.6492 H   0  0  0  0  0
    5.4738    2.3646   45.3061 H   0  0  0  0  0
    8.3988    2.4109   44.3259 H   0  0  0  0  0
    8.7880    4.0010   45.0268 H   0  0  0  0  0
    7.8066    2.8370   45.9503 H   0  0  0  0  0
    5.8138    3.9797   40.7647 H   0  0  0  0  0
    4.0645    6.3649   41.0354 H   0  0  0  0  0
    3.3056    5.7904   38.7925 H   0  0  0  0  0
    4.4196    4.3429   38.8242 H   0  0  0  0  0
    4.6424    8.2780   38.5597 H   0  0  0  0  0
    8.3755    6.5512   37.4343 H   0  0  0  0  0
    2.6153    5.9054   42.6413 H   0  0  0  0  0
    0.6043    3.8498   41.9421 H   0  0  0  0  0
    0.5469    2.9443   44.2243 H   0  0  0  0  0
    1.9383    4.0007   44.6706 H   0  0  0  0  0
    2.5725    1.8475   44.1477 H   0  0  0  0  0
   -1.0106    4.1201   43.8636 H   0  0  0  0  0
  1  2  1  0  0  0
  2  3  1  0  0  0
  2  5  1  0  0  0
  3  4  2  0  0  0
  3  7  1  0  0  0
  5  6  1  0  0  0
  7  8  1  0  0  0
  8  9  1  0  0  0
  8 11  1  0  0  0
  9 10  2  0  0  0
  9 14  1  0  0  0
 11 12  1  0  0  0
 11 13  1  0  0  0
 14 15  1  0  0  0
 15 16  1  0  0  0
 15 18  1  0  0  0
 16 17  2  0  0  0
 16 21  1  0  0  0
 18 19  1  0  0  0
 18 20  1  0  0  0
 21 22  1  0  0  0
 22 23  1  0  0  0
 22 25  1  0  0  0
 23 24  2  0  0  0
 23 30  1  0  0  0
 25 26  1  0  0  0
 26 27  1  0  0  0
 27 28  2  0  0  0
 27 29  1  0  0  0
 30 31  1  0  0  0
 31 32  1  0  0  0
 31 34  1  0  0  0
 32 33  2  0  0  0
 32 46  1  0  0  0
 34 35  1  0  0  0
 35 36  4  0  0  0
 35 37  4  0  0  0
 36 38  4  0  0  0
 37 39  4  0  0  0
 38 40  4  0  0  0
 39 40  4  0  0  0
 40 41  1  0  0  0
 41 42  1  0  0  0
 42 43  2  0  0  0
 42 44  1  0  0  0
 42 45  1  0  0  0
 46 47  1  0  0  0
 47 48  1  0  0  0
 47 50  1  0  0  0
 48 49  2  0  0  0
 48 52  1  0  0  0
 50 51  1  0  0  0
 52 53  1  0  0  0
 53 54  1  0  0  0
 53 56  1  0  0  0
 54 55  2  0  0  0
 54 59  1  0  0  0
 56 57  1  0  0  0
 56 58  1  0  0  0
 59 60  1  0  0  0
 60 61  1  0  0  0
 60 63  1  0  0  0
 61 62  2  0  0  0
 61 66  1  0  0  0
 63 64  1  0  0  0
 63 65  1  0  0  0
 66 67  1  0  0  0
 67 68  1  0  0  0
 67 70  1  0  0  0
 68 69  2  0  0  0
 68 73  1  0  0  0
 70 71  1  0  0  0
 70 72  1  0  0  0
 73 74  1  0  0  0
 74 75  1  0  0  0
 74 77  1  0  0  0
 75 76  2  0  0  0
 75 83  1  0  0  0
 77 78  1  0  0  0
 78 79  4  0  0  0
 78 80  4  0  0  0
 79 81  4  0  0  0
 80 82  4  0  0  0
 81 82  4  0  0  0
 83 84  1  0  0  0
 84 85  1  0  0  0
 84 87  1  0  0  0
 85 86  2  0  0  0
 85 89  1  0  0  0
 87 88  1  0  0  0
  1 90  1  0  0  0
  1 91  1  0  0  0
  1 92  1  0  0  0
  2 93  1  0  0  0
  5 94  1  0  0  0
  5 95  1  0  0  0
  6 96  1  0  0  0
  7 97  1  0  0  0
  8 98  1  0  0  0
 11 99  1  0  0  0
 12100  1  0  0  0
 13101  1  0  0  0
 13102  1  0  0  0
 13103  1  0  0  0
 14104  1  0  0  0
 15105  1  0  0  0
 18106  1  0  0  0
 19107  1  0  0  0
 19108  1  0  0  0
 19109  1  0  0  0
 20110  1  0  0  0
 20111  1  0  0  0
 20112  1  0  0  0
 21113  1  0  0  0
 22114  1  0  0  0
 25115  1  0  0  0
 25116  1  0  0  0
 26117  1  0  0  0
 26118  1  0  0  0
 29119  1  0  0  0
 30120  1  0  0  0
 31121  1  0  0  0
 34122  1  0  0  0
 34123  1  0  0  0
 36124  1  0  0  0
 37125  1  0  0  0
 38126  1  0  0  0
 39127  1  0  0  0
 44128  1  0  0  0
 45129  1  0  0  0
 46130  1  0  0  0
 47131  1  0  0  0
 50132  1  0  0  0
 50133  1  0  0  0
 51134  1  0  0  0
 52135  1  0  0  0
 53136  1  0  0  0
 56137  1  0  0  0
 57138  1  0  0  0
 58139  1  0  0  0
 58140  1  0  0  0
 58141  1  0  0  0
 59142  1  0  0  0
 60143  1  0  0  0
 63144  1  0  0  0
 64145  1  0  0  0
 64146  1  0  0  0
 64147  1  0  0  0
 65148  1  0  0  0
 65149  1  0  0  0
 65150  1  0  0  0
 66151  1  0  0  0
 67152  1  0  0  0
 70153  1  0  0  0
 71154  1  0  0  0
 71155  1  0  0  0
 71156  1  0  0  0
 72157  1  0  0  0
 72158  1  0  0  0
 72159  1  0  0  0
 73160  1  0  0  0
 74161  1  0  0  0
 77162  1  0  0  0
 77163  1  0  0  0
 80164  1  0  0  0
 81165  1  0  0  0
 83166  1  0  0  0
 84167  1  0  0  0
 87168  1  0  0  0
 87169  1  0  0  0
 88170  1  0  0  0
 89171  1  0  0  0
M  END
$$$$
