2k31_ligand
  -I-interpret- 

 34 37  0  0  0  0  0  0  0  0999 V2000
    8.4850    1.8690    3.1570 P   0  0  0  0  0
    9.4770    0.9340    3.7960 O   0  0  0  0  0
    7.9410    1.6180    1.7690 O   0  0  0  0  0
    8.9810    3.4700    3.1840 O   0  0  0  0  0
    7.9890    4.4570    2.6770 C   0  0  0  0  0
    6.6940    4.3960    3.5760 C   0  0  0  0  0
    5.6220    5.1880    3.3240 O   0  0  0  0  0
    6.1290    3.0210    3.6410 C   0  0  0  0  0
    7.1830    2.0780    4.1460 O   0  0  0  0  0
    4.9340    3.2760    4.5210 C   0  0  0  0  0
    5.1630    2.8610    5.8860 O   0  0  0  0  0
    4.6600    4.7780    4.2980 C   0  0  0  0  0
    3.3160    5.0870    3.7620 N   0  0  0  0  0
    2.7840    4.9160    2.4930 C   0  0  0  0  0
    1.4850    5.3540    2.4750 N   0  0  0  0  0
    1.1960    5.7980    3.7240 C   0  0  0  0  0
    0.0300    6.4220    4.5420 C   0  0  0  0  0
   -1.0780    6.6490    3.9900 O   0  0  0  0  0
    0.1840    6.7860    6.0530 N   0  0  0  0  0
    1.4280    6.5800    6.8450 C   0  0  0  0  0
    1.5650    6.8940    8.1570 N   0  0  0  0  0
    2.5140    5.9850    6.0310 N   0  0  0  0  0
    2.4080    5.6140    4.5530 C   0  0  0  0  0
    7.3262    2.3176    1.5361 H   0  0  0  0  0
    7.7304    4.2198    1.6450 H   0  0  0  0  0
    8.4159    5.4592    2.7165 H   0  0  0  0  0
    7.1426    4.7834    4.4907 H   0  0  0  0  0
    5.8254    2.5302    2.7163 H   0  0  0  0  0
    4.0508    2.6865    4.2750 H   0  0  0  0  0
    4.3789    3.0411    6.4098 H   0  0  0  0  0
    4.7216    5.2885    5.2591 H   0  0  0  0  0
    3.3174    4.4971    1.6397 H   0  0  0  0  0
    0.7820    7.3013    8.6684 H   0  0  0  0  0
    3.4049    5.8088    6.4955 H   0  0  0  0  0
  1  2  2  0  0  0
  1  3  1  0  0  0
  1  4  1  0  0  0
  1  9  1  0  0  0
  4  5  1  0  0  0
  5  6  1  0  0  0
  6  7  1  0  0  0
  6  8  1  0  0  0
  7 12  1  0  0  0
  8  9  1  0  0  0
  8 10  1  0  0  0
 10 11  1  0  0  0
 10 12  1  0  0  0
 12 13  1  0  0  0
 13 14  4  0  0  0
 13 23  4  0  0  0
 14 15  4  0  0  0
 15 16  4  0  0  0
 16 17  1  0  0  0
 16 23  4  0  0  0
 17 18  2  0  0  0
 17 19  1  0  0  0
 19 20  4  0  0  0
 20 21  2  0  0  0
 20 22  1  0  0  0
 22 23  1  0  0  0
  3 24  1  0  0  0
  5 25  1  0  0  0
  5 26  1  0  0  0
  6 27  1  0  0  0
  8 28  1  0  0  0
 10 29  1  0  0  0
 11 30  1  0  0  0
 12 31  1  0  0  0
 14 32  1  0  0  0
 21 33  1  0  0  0
 22 34  1  0  0  0
M  END
$$$$
