2k7l_ligand
  -I-interpret- 

326327  0  0  0  0  0  0  0  0999 V2000
   -2.7210   -5.4690   24.0140 N   0  3  0  0  0
   -1.4650   -6.2330   23.7930 C   0  0  0  0  0
   -0.5190   -5.4800   22.8630 C   0  0  0  0  0
   -0.8550   -4.4130   22.3500 O   0  0  0  0  0
   -1.8210   -7.5950   23.1950 C   0  0  0  0  0
   -0.9450   -8.7290   23.7010 C   0  0  0  0  0
   -1.6460   -9.5910   24.7330 C   0  0  0  0  0
   -2.5050  -10.4080   24.3400 O   0  0  0  0  0
   -1.3350   -9.4490   25.9340 O   0  0  0  0  0
    0.6660   -6.0440   22.6510 N   0  0  0  0  0
    1.6620   -5.4260   21.7830 C   0  0  0  0  0
    1.1370   -5.2980   20.3570 C   0  0  0  0  0
    1.3060   -6.2020   19.5390 O   0  0  0  0  0
    2.9550   -6.2440   21.7920 C   0  0  0  0  0
    2.7050   -7.7270   21.6020 C   0  0  0  0  0
    1.6030   -8.0890   21.1370 O   0  0  0  0  0
    3.6100   -8.5270   21.9180 O   0  0  0  0  0
    0.5020   -4.1680   20.0650 N   0  0  0  0  0
   -0.0460   -3.9190   18.7370 C   0  0  0  0  0
   -0.7890   -2.5790   18.7110 C   0  0  0  0  0
   -1.1430   -2.1100   17.3120 C   0  0  0  0  0
   -1.9890   -2.6950   19.4780 O   0  0  0  0  0
   -2.2910   -1.2470   20.1190 P   0  0  0  0  0
   -3.7150   -1.1700   20.5150 O   0  0  0  0  0
   -1.3630   -1.0310   21.4160 O   0  0  0  0  0
   -1.9740   -0.1000   19.0340 O   0  0  0  0  0
    1.0660   -3.9100   17.6920 C   0  0  0  0  0
    1.5820   -2.8510   17.3350 O   0  0  0  0  0
    1.4310   -5.0900   17.2010 N   0  0  0  0  0
    2.4750   -5.1980   16.2000 C   0  0  0  0  0
    1.8860   -5.1120   14.7940 C   0  0  0  0  0
    2.1820   -5.9380   13.9310 O   0  0  0  0  0
    3.2340   -6.5150   16.3730 C   0  0  0  0  0
    4.6720   -6.4240   15.9040 C   0  0  0  0  0
    5.4550   -5.6790   16.5310 O   0  0  0  0  0
    5.0170   -7.0990   14.9120 O   0  0  0  0  0
    1.0570   -4.0960   14.5710 N   0  0  0  0  0
    0.4300   -3.8840   13.2770 C   0  0  0  0  0
    1.3400   -3.0730   12.3620 C   0  0  0  0  0
    1.3880   -3.2960   11.1540 O   0  0  0  0  0
   -0.9130   -3.1700   13.4460 C   0  0  0  0  0
   -0.7900   -1.7770   14.0400 C   0  0  0  0  0
   -2.1390   -1.1330   14.2980 C   0  0  0  0  0
   -3.0400   -1.8280   14.8120 O   0  0  0  0  0
   -2.2930    0.0670   13.9850 O   0  0  0  0  0
    2.0460   -2.1180   12.9530 N   0  0  0  0  0
    2.9480   -1.2530   12.2110 C   0  0  0  0  0
    4.3160   -1.9010   12.0180 C   0  0  0  0  0
    5.0610   -1.5390   11.1060 O   0  0  0  0  0
    3.0970    0.0840   12.9360 C   0  0  0  0  0
    2.9510    1.2690   12.0020 C   0  0  0  0  0
    1.8020    1.6840   11.7440 O   0  0  0  0  0
    3.9860    1.7830   11.5280 O   0  0  0  0  0
    4.6450   -2.8520   12.8840 N   0  0  0  0  0
    5.9280   -3.5430   12.8160 C   0  0  0  0  0
    6.2040   -4.0770   11.4180 C   0  0  0  0  0
    7.2370   -3.7790   10.8180 O   0  0  0  0  0
    5.9620   -4.6810   13.8220 C   0  0  0  0  0
    7.3740   -5.1050   14.1740 C   0  0  0  0  0
    8.0210   -5.7670   13.3350 O   0  0  0  0  0
    7.8330   -4.7750   15.2880 O   0  0  0  0  0
    5.2740   -4.8640   10.9110 N   0  0  0  0  0
    5.4000   -5.4470    9.5880 C   0  0  0  0  0
    5.0460   -4.4350    8.5040 C   0  0  0  0  0
    5.4560   -4.5760    7.3520 O   0  0  0  0  0
    4.5010   -6.6770    9.4720 C   0  0  0  0  0
    3.1330   -6.4890   10.0510 C   0  0  0  0  0
    2.5550   -7.3870   10.9220 N   0  0  0  0  0
    2.2270   -5.4980    9.8780 C   0  0  0  0  0
    1.3510   -6.9590   11.2590 C   0  0  0  0  0
    1.1290   -5.8150   10.6390 N   0  0  0  0  0
    4.2830   -3.4130    8.8790 N   0  0  0  0  0
    3.8750   -2.3760    7.9380 C   0  0  0  0  0
    5.0910   -1.7300    7.2830 C   0  0  0  0  0
    5.0440   -1.3230    6.1240 O   0  0  0  0  0
    3.0390   -1.3100    8.6480 C   0  0  0  0  0
    2.7460   -0.0590    7.8180 C   0  0  0  0  0
    1.7540   -0.3730    6.7100 C   0  0  0  0  0
    2.2250    1.0570    8.7090 C   0  0  0  0  0
    6.1770   -1.6330    8.0320 N   0  0  0  0  0
    7.3950   -1.0420    7.5180 C   0  0  0  0  0
    8.2330   -2.0840    6.7750 C   0  0  0  0  0
    8.9700   -1.7550    5.8460 O   0  0  0  0  0
    8.2280   -0.3960    8.6440 C   0  0  0  0  0
    7.4400    0.7520    9.2810 C   0  0  0  0  0
    9.5640    0.1060    8.1090 C   0  0  0  0  0
    8.1740    1.4330   10.4160 C   0  0  0  0  0
    8.1150   -3.3430    7.1980 N   0  0  0  0  0
    8.8610   -4.4370    6.5810 C   0  0  0  0  0
    8.4230   -4.6670    5.1420 C   0  0  0  0  0
    9.2500   -4.8470    4.2510 O   0  0  0  0  0
    8.7100   -5.7240    7.4150 C   0  0  0  0  0
    8.4000   -6.9620    6.5980 C   0  0  0  0  0
    7.1460   -7.1400    6.0330 C   0  0  0  0  0
    9.3650   -7.9370    6.3760 C   0  0  0  0  0
    6.8570   -8.2490    5.2720 C   0  0  0  0  0
    9.0820   -9.0560    5.6160 C   0  0  0  0  0
    7.8260   -9.2070    5.0650 C   0  0  0  0  0
    7.5410  -10.3170    4.3030 O   0  0  0  0  0
    7.1240   -4.6610    4.9210 N   0  0  0  0  0
    6.5900   -4.8690    3.5850 C   0  0  0  0  0
    6.7830   -3.6140    2.7450 C   0  0  0  0  0
    6.7110   -3.6530    1.5180 O   0  0  0  0  0
    5.1150   -5.3070    3.6380 C   0  0  0  0  0
    4.0550   -4.2080    3.4910 C   0  0  0  0  0
    4.2500   -3.1380    4.5430 C   0  0  0  0  0
    4.0680   -3.6080    2.0930 C   0  0  0  0  0
    7.0250   -2.4990    3.4150 N   0  0  0  0  0
    7.2300   -1.2400    2.7300 C   0  0  0  0  0
    8.4760   -1.2980    1.8460 C   0  0  0  0  0
    8.5520   -0.6260    0.8180 O   0  0  0  0  0
    7.3390   -0.0980    3.7540 C   0  0  0  0  0
    8.7420    0.4700    3.9210 C   0  0  0  0  0
    8.8190    1.5220    5.0110 C   0  0  0  0  0
    7.7600    2.0680    5.3850 O   0  0  0  0  0
    9.9390    1.7990    5.4900 O   0  0  0  0  0
    9.4570   -2.0920    2.2690 N   0  0  0  0  0
   10.7130   -2.2220    1.5340 C   0  0  0  0  0
   10.6190   -3.2190    0.3850 C   0  0  0  0  0
   11.1040   -2.9520   -0.7150 O   0  0  0  0  0
   11.8560   -2.6030    2.4800 C   0  0  0  0  0
   11.5830   -3.8370    3.3230 C   0  0  0  0  0
   12.8570   -4.4990    3.8120 C   0  0  0  0  0
   13.4310   -5.3110    3.0570 O   0  0  0  0  0
   13.2790   -4.2060    4.9510 O   0  0  0  0  0
   10.0010   -4.3620    0.6340 N   0  0  0  0  0
    9.8570   -5.3880   -0.4040 C   0  0  0  0  0
    9.2790   -4.8010   -1.6820 C   0  0  0  0  0
    9.5170   -5.3080   -2.7780 O   0  0  0  0  0
    8.9810   -6.5780    0.0460 C   0  0  0  0  0
    7.7350   -6.0920    0.7790 C   0  0  0  0  0
    9.7760   -7.5210    0.9320 C   0  0  0  0  0
    6.5060   -6.0290   -0.0950 C   0  0  0  0  0
    8.5230   -3.7280   -1.5320 N   0  0  0  0  0
    7.9100   -3.0580   -2.6650 C   0  0  0  0  0
    8.9340   -2.3260   -3.5040 C   0  0  0  0  0
    9.3830   -2.8130   -4.5410 O   0  0  0  0  0
    6.8640   -2.0590   -2.1790 C   0  0  0  0  0
    6.4780   -0.9830   -3.2030 C   0  0  0  0  0
    5.8920   -1.6160   -4.4530 C   0  0  0  0  0
    5.5040    0.0090   -2.5900 C   0  0  0  0  0
    9.2590   -1.1330   -3.0530 N   0  0  0  0  0
   10.1840   -0.2800   -3.7510 C   0  0  0  0  0
   11.0690    0.4650   -2.7700 C   0  0  0  0  0
   11.5030    1.5870   -3.0300 O   0  0  0  0  0
    9.4300    0.7350   -4.6290 C   0  0  0  0  0
    8.5590    0.0310   -5.6620 C   0  0  0  0  0
    8.5870    1.6570   -3.7620 C   0  0  0  0  0
   11.3220   -0.1670   -1.6370 N   0  0  0  0  0
   12.1470    0.4340   -0.6050 C   0  0  0  0  0
   13.0640   -0.6000    0.0400 C   0  0  0  0  0
   13.2610   -0.5990    1.2550 O   0  0  0  0  0
   11.2710    1.1050    0.4550 C   0  0  0  0  0
   10.6960    2.4380    0.0090 C   0  0  0  0  0
   10.3030    3.3010    1.1970 C   0  0  0  0  0
   11.4000    4.1600    1.6360 N   0  0  0  0  0
   11.4580    4.7360    2.8350 C   0  0  0  0  0
   10.4830    4.5480    3.7160 N   0  0  0  0  0
   12.4920    5.5020    3.1530 N   0  0  0  0  0
   13.6260   -1.4800   -0.7840 N   0  0  0  0  0
   14.5240   -2.5200   -0.2970 C   0  0  0  0  0
   15.7210   -1.9160    0.4300 C   0  0  0  0  0
   16.0230   -2.3730    1.5530 O   0  0  0  0  0
   15.0330   -3.4070   -1.4480 C   0  0  0  0  0
   13.8860   -4.1910   -2.0660 C   0  0  0  0  0
   15.7410   -2.5650   -2.4990 C   0  0  0  0  0
   16.3480   -0.9920   -0.1300 O   0  0  0  0  0
   -2.4973   -4.5574   24.4131 H   0  0  0  0  0
   -3.2020   -5.3428   23.1234 H   0  0  0  0  0
   -3.3225   -5.9845   24.6566 H   0  0  0  0  0
   -0.9531   -6.3640   24.7464 H   0  0  0  0  0
   -1.6766   -7.5265   22.1168 H   0  0  0  0  0
   -2.8474   -7.8208   23.4841 H   0  0  0  0  0
   -0.0660   -8.2893   24.1723 H   0  0  0  0  0
   -0.6918   -9.3624   22.8508 H   0  0  0  0  0
   -2.5856  -10.3513   23.3851 H   0  0  0  0  0
    0.8840   -6.9303   23.1063 H   0  0  0  0  0
    1.8701   -4.4265   22.1649 H   0  0  0  0  0
    3.4341   -6.1052   22.7612 H   0  0  0  0  0
    3.5768   -5.8992   20.9658 H   0  0  0  0  0
    1.0601   -7.3162   20.9650 H   0  0  0  0  0
    0.3952   -3.4567   20.7882 H   0  0  0  0  0
   -0.7460   -4.7205   18.5009 H   0  0  0  0  0
   -0.1130   -1.8360   19.1342 H   0  0  0  0  0
   -0.2301   -1.9889   16.7289 H   0  0  0  0  0
   -1.7856   -2.8494   16.8340 H   0  0  0  0  0
   -1.6667   -1.1559   17.3717 H   0  0  0  0  0
   -0.4394   -1.0809   21.1591 H   0  0  0  0  0
   -1.0503   -0.1503   18.7774 H   0  0  0  0  0
    0.9681   -5.9356   17.5345 H   0  0  0  0  0
    3.1682   -4.3676   16.3338 H   0  0  0  0  0
    2.7322   -7.2731   15.7717 H   0  0  0  0  0
    3.2422   -6.7607   17.4349 H   0  0  0  0  0
    4.9841   -5.2573   17.2535 H   0  0  0  0  0
    0.8553   -3.4462   15.3309 H   0  0  0  0  0
    0.2576   -4.8582   12.8196 H   0  0  0  0  0
   -1.5161   -3.7657   14.1312 H   0  0  0  0  0
   -1.3547   -3.0652   12.4550 H   0  0  0  0  0
   -0.2514   -1.1538   13.3261 H   0  0  0  0  0
   -0.2711   -1.8636   14.9946 H   0  0  0  0  0
   -1.4775    0.4054   13.6081 H   0  0  0  0  0
    1.9529   -1.9866   13.9602 H   0  0  0  0  0
    2.5184   -1.0863   11.2232 H   0  0  0  0  0
    4.0949    0.1207   13.3730 H   0  0  0  0  0
    2.3104    0.1489   13.6877 H   0  0  0  0  0
    4.7552    1.3109   11.8553 H   0  0  0  0  0
    3.9827   -3.1064   13.6168 H   0  0  0  0  0
    6.7075   -2.8206   13.0581 H   0  0  0  0  0
    5.4554   -5.5375   13.3771 H   0  0  0  0  0
    5.4776   -4.3360   14.7355 H   0  0  0  0  0
    7.4806   -5.9073   12.5541 H   0  0  0  0  0
    4.4424   -5.0685   11.4651 H   0  0  0  0  0
    6.4387   -5.7452    9.4452 H   0  0  0  0  0
    4.9803   -7.4813   10.0300 H   0  0  0  0  0
    4.3762   -6.8870    8.4097 H   0  0  0  0  0
    2.3468   -4.6139    9.2518 H   0  0  0  0  0
    0.6596   -7.4642   11.9335 H   0  0  0  0  0
    3.9751   -3.3525    9.8495 H   0  0  0  0  0
    3.2692   -2.8437    7.1619 H   0  0  0  0  0
    3.6143   -0.9848    9.5148 H   0  0  0  0  0
    2.0767   -1.7670    8.8786 H   0  0  0  0  0
    3.6746    0.2763    7.3561 H   0  0  0  0  0
    2.1705   -1.1408    6.0580 H   0  0  0  0  0
    0.8232   -0.7328    7.1486 H   0  0  0  0  0
    1.5594    0.5302    6.1316 H   0  0  0  0  0
    1.3069    0.7312    9.1979 H   0  0  0  0  0
    2.9742    1.2977    9.4633 H   0  0  0  0  0
    2.0217    1.9395    8.1024 H   0  0  0  0  0
    6.1561   -1.9813    8.9904 H   0  0  0  0  0
    7.1065   -0.2583    6.8175 H   0  0  0  0  0
    8.4316   -1.1505    9.4039 H   0  0  0  0  0
    6.5221    0.3308    9.6911 H   0  0  0  0  0
    7.2683    1.5000    8.5070 H   0  0  0  0  0
   10.1245   -0.7308    7.6922 H   0  0  0  0  0
    9.3865    0.8493    7.3317 H   0  0  0  0  0
   10.1330    0.5572    8.9218 H   0  0  0  0  0
    8.3826    0.7055   11.2004 H   0  0  0  0  0
    9.1112    1.8471   10.0442 H   0  0  0  0  0
    7.5549    2.2351   10.8179 H   0  0  0  0  0
    7.4860   -3.5480    7.9744 H   0  0  0  0  0
    9.9145   -4.1580    6.5600 H   0  0  0  0  0
    7.8722   -5.5697    8.0949 H   0  0  0  0  0
    9.6640   -5.8981    7.9126 H   0  0  0  0  0
    6.3748   -6.3869    6.1950 H   0  0  0  0  0
   10.3589   -7.8175    6.8073 H   0  0  0  0  0
    5.8659   -8.3695    4.8346 H   0  0  0  0  0
    9.8469   -9.8152    5.4527 H   0  0  0  0  0
    8.3169  -10.8805    4.2577 H   0  0  0  0  0
    6.4831   -4.5080    5.6996 H   0  0  0  0  0
    7.1408   -5.6797    3.1081 H   0  0  0  0  0
    4.9668   -5.7318    4.6308 H   0  0  0  0  0
    4.9722   -5.9732    2.7872 H   0  0  0  0  0
    3.0761   -4.6630    3.6421 H   0  0  0  0  0
    4.1628   -3.5841    5.5337 H   0  0  0  0  0
    5.2389   -2.6940    4.4288 H   0  0  0  0  0
    3.4883   -2.3678    4.4216 H   0  0  0  0  0
    5.0477   -3.1734    1.8946 H   0  0  0  0  0
    3.8609   -4.3893    1.3617 H   0  0  0  0  0
    3.3046   -2.8329    2.0245 H   0  0  0  0  0
    7.0680   -2.5269    4.4337 H   0  0  0  0  0
    6.3728   -1.0501    2.0841 H   0  0  0  0  0
    7.0438   -0.5071    4.7202 H   0  0  0  0  0
    6.7072    0.7141    3.3941 H   0  0  0  0  0
    9.0279    0.9401    2.9801 H   0  0  0  0  0
    9.4050   -0.3496    4.1982 H   0  0  0  0  0
   10.6107    1.2645    5.0602 H   0  0  0  0  0
    9.3284   -2.6241    3.1296 H   0  0  0  0  0
   10.9229   -1.2468    1.0946 H   0  0  0  0  0
   11.9955   -1.7688    3.1675 H   0  0  0  0  0
   12.7256   -2.8230    1.8608 H   0  0  0  0  0
   11.0466   -4.5558    2.7036 H   0  0  0  0  0
   11.0080   -3.5278    4.1958 H   0  0  0  0  0
   12.6883   -3.5662    5.3551 H   0  0  0  0  0
    9.6181   -4.5326    1.5639 H   0  0  0  0  0
   10.8635   -5.7617   -0.5920 H   0  0  0  0  0
    8.6650   -7.1185   -0.8462 H   0  0  0  0  0
    7.9371   -5.0808    1.1322 H   0  0  0  0  0
    7.5299   -6.8013    1.5808 H   0  0  0  0  0
   10.6334   -7.9023    0.3774 H   0  0  0  0  0
   10.1225   -6.9829    1.8143 H   0  0  0  0  0
    9.1407   -8.3522    1.2380 H   0  0  0  0  0
    6.6855   -5.3434   -0.9232 H   0  0  0  0  0
    6.2879   -7.0231   -0.4853 H   0  0  0  0  0
    5.6602   -5.6751    0.4945 H   0  0  0  0  0
    8.3655   -3.3599   -0.5939 H   0  0  0  0  0
    7.4415   -3.8252   -3.2815 H   0  0  0  0  0
    7.2949   -1.5408   -1.3223 H   0  0  0  0  0
    5.9600   -2.6277   -1.9612 H   0  0  0  0  0
    7.3796   -0.4423   -3.4909 H   0  0  0  0  0
    6.6296   -2.2814   -4.9017 H   0  0  0  0  0
    5.0014   -2.1853   -4.1871 H   0  0  0  0  0
    5.6260   -0.8340   -5.1642 H   0  0  0  0  0
    4.6040   -0.5170   -2.2715 H   0  0  0  0  0
    5.9697    0.4889   -1.7293 H   0  0  0  0  0
    5.2420    0.7642   -3.3310 H   0  0  0  0  0
    8.8425   -0.8031   -2.1823 H   0  0  0  0  0
   10.8054   -0.9111   -4.3863 H   0  0  0  0  0
   10.1676    1.3322   -5.1652 H   0  0  0  0  0
    9.1867   -0.5864   -6.3045 H   0  0  0  0  0
    7.8293   -0.5979   -5.1521 H   0  0  0  0  0
    8.0401    0.7755   -6.2658 H   0  0  0  0  0
    7.8646    1.0651   -3.2000 H   0  0  0  0  0
    9.2345    2.1953   -3.0699 H   0  0  0  0  0
    8.0598    2.3691   -4.3969 H   0  0  0  0  0
   10.9295   -1.0961   -1.4848 H   0  0  0  0  0
   12.7733    1.1924   -1.0747 H   0  0  0  0  0
   11.8974    1.2933    1.3269 H   0  0  0  0  0
   10.4332    0.4380    0.6583 H   0  0  0  0  0
    9.8047    2.2468   -0.5886 H   0  0  0  0  0
   11.4564    2.9671   -0.5654 H   0  0  0  0  0
   10.0344    2.6422    2.0228 H   0  0  0  0  0
    9.4712    3.9377    0.8955 H   0  0  0  0  0
   12.1672    4.3285    0.9853 H   0  0  0  0  0
   10.5316    4.9921    4.6330 H   0  0  0  0  0
    9.6853    3.9594    3.4760 H   0  0  0  0  0
   13.2433    5.6502    2.4792 H   0  0  0  0  0
   13.4235   -1.4258   -1.7822 H   0  0  0  0  0
   13.9501   -3.1328    0.3981 H   0  0  0  0  0
   15.4100   -3.0736    1.7875 H   0  0  0  0  0
   15.7517   -4.1191   -1.0424 H   0  0  0  0  0
   13.4297   -4.8249   -1.3057 H   0  0  0  0  0
   13.1419   -3.4968   -2.4565 H   0  0  0  0  0
   14.2671   -4.8113   -2.8772 H   0  0  0  0  0
   15.0458   -1.8279   -2.9009 H   0  0  0  0  0
   16.5897   -2.0552   -2.0430 H   0  0  0  0  0
   16.0929   -3.2108   -3.3034 H   0  0  0  0  0
  1  2  1  0  0  0
  2  3  1  0  0  0
  2  5  1  0  0  0
  3  4  2  0  0  0
  3 10  1  0  0  0
  5  6  1  0  0  0
  6  7  1  0  0  0
  7  8  1  0  0  0
  7  9  2  0  0  0
 10 11  1  0  0  0
 11 12  1  0  0  0
 11 14  1  0  0  0
 12 13  2  0  0  0
 12 18  1  0  0  0
 14 15  1  0  0  0
 15 16  1  0  0  0
 15 17  2  0  0  0
 18 19  1  0  0  0
 19 20  1  0  0  0
 19 27  1  0  0  0
 20 21  1  0  0  0
 20 22  1  0  0  0
 22 23  1  0  0  0
 23 24  2  0  0  0
 23 25  1  0  0  0
 23 26  1  0  0  0
 27 28  2  0  0  0
 27 29  1  0  0  0
 29 30  1  0  0  0
 30 31  1  0  0  0
 30 33  1  0  0  0
 31 32  2  0  0  0
 31 37  1  0  0  0
 33 34  1  0  0  0
 34 35  1  0  0  0
 34 36  2  0  0  0
 37 38  1  0  0  0
 38 39  1  0  0  0
 38 41  1  0  0  0
 39 40  2  0  0  0
 39 46  1  0  0  0
 41 42  1  0  0  0
 42 43  1  0  0  0
 43 44  2  0  0  0
 43 45  1  0  0  0
 46 47  1  0  0  0
 47 48  1  0  0  0
 47 50  1  0  0  0
 48 49  2  0  0  0
 48 54  1  0  0  0
 50 51  1  0  0  0
 51 52  2  0  0  0
 51 53  1  0  0  0
 54 55  1  0  0  0
 55 56  1  0  0  0
 55 58  1  0  0  0
 56 57  2  0  0  0
 56 62  1  0  0  0
 58 59  1  0  0  0
 59 60  1  0  0  0
 59 61  2  0  0  0
 62 63  1  0  0  0
 63 64  1  0  0  0
 63 66  1  0  0  0
 64 65  2  0  0  0
 64 72  1  0  0  0
 66 67  1  0  0  0
 67 68  4  0  0  0
 67 69  4  0  0  0
 68 70  4  0  0  0
 69 71  4  0  0  0
 70 71  4  0  0  0
 72 73  1  0  0  0
 73 74  1  0  0  0
 73 76  1  0  0  0
 74 75  2  0  0  0
 74 80  1  0  0  0
 76 77  1  0  0  0
 77 78  1  0  0  0
 77 79  1  0  0  0
 80 81  1  0  0  0
 81 82  1  0  0  0
 81 84  1  0  0  0
 82 83  2  0  0  0
 82 88  1  0  0  0
 84 85  1  0  0  0
 84 86  1  0  0  0
 85 87  1  0  0  0
 88 89  1  0  0  0
 89 90  1  0  0  0
 89 92  1  0  0  0
 90 91  2  0  0  0
 90100  1  0  0  0
 92 93  1  0  0  0
 93 94  4  0  0  0
 93 95  4  0  0  0
 94 96  4  0  0  0
 95 97  4  0  0  0
 96 98  4  0  0  0
 97 98  4  0  0  0
 98 99  1  0  0  0
100101  1  0  0  0
101102  1  0  0  0
101104  1  0  0  0
102103  2  0  0  0
102108  1  0  0  0
104105  1  0  0  0
105106  1  0  0  0
105107  1  0  0  0
108109  1  0  0  0
109110  1  0  0  0
109112  1  0  0  0
110111  2  0  0  0
110117  1  0  0  0
112113  1  0  0  0
113114  1  0  0  0
114115  2  0  0  0
114116  1  0  0  0
117118  1  0  0  0
118119  1  0  0  0
118121  1  0  0  0
119120  2  0  0  0
119126  1  0  0  0
121122  1  0  0  0
122123  1  0  0  0
123124  2  0  0  0
123125  1  0  0  0
126127  1  0  0  0
127128  1  0  0  0
127130  1  0  0  0
128129  2  0  0  0
128134  1  0  0  0
130131  1  0  0  0
130132  1  0  0  0
131133  1  0  0  0
134135  1  0  0  0
135136  1  0  0  0
135138  1  0  0  0
136137  2  0  0  0
136142  1  0  0  0
138139  1  0  0  0
139140  1  0  0  0
139141  1  0  0  0
142143  1  0  0  0
143144  1  0  0  0
143146  1  0  0  0
144145  2  0  0  0
144149  1  0  0  0
146147  1  0  0  0
146148  1  0  0  0
149150  1  0  0  0
150151  1  0  0  0
150153  1  0  0  0
151152  2  0  0  0
151160  1  0  0  0
153154  1  0  0  0
154155  1  0  0  0
155156  1  0  0  0
156157  1  0  0  0
157158  1  0  0  0
157159  2  0  0  0
160161  1  0  0  0
161162  1  0  0  0
161164  1  0  0  0
162163  1  0  0  0
162167  2  0  0  0
164165  1  0  0  0
164166  1  0  0  0
  1168  1  0  0  0
  1169  1  0  0  0
  1170  1  0  0  0
  2171  1  0  0  0
  5172  1  0  0  0
  5173  1  0  0  0
  6174  1  0  0  0
  6175  1  0  0  0
  8176  1  0  0  0
 10177  1  0  0  0
 11178  1  0  0  0
 14179  1  0  0  0
 14180  1  0  0  0
 16181  1  0  0  0
 18182  1  0  0  0
 19183  1  0  0  0
 20184  1  0  0  0
 21185  1  0  0  0
 21186  1  0  0  0
 21187  1  0  0  0
 25188  1  0  0  0
 26189  1  0  0  0
 29190  1  0  0  0
 30191  1  0  0  0
 33192  1  0  0  0
 33193  1  0  0  0
 35194  1  0  0  0
 37195  1  0  0  0
 38196  1  0  0  0
 41197  1  0  0  0
 41198  1  0  0  0
 42199  1  0  0  0
 42200  1  0  0  0
 45201  1  0  0  0
 46202  1  0  0  0
 47203  1  0  0  0
 50204  1  0  0  0
 50205  1  0  0  0
 53206  1  0  0  0
 54207  1  0  0  0
 55208  1  0  0  0
 58209  1  0  0  0
 58210  1  0  0  0
 60211  1  0  0  0
 62212  1  0  0  0
 63213  1  0  0  0
 66214  1  0  0  0
 66215  1  0  0  0
 69216  1  0  0  0
 70217  1  0  0  0
 72218  1  0  0  0
 73219  1  0  0  0
 76220  1  0  0  0
 76221  1  0  0  0
 77222  1  0  0  0
 78223  1  0  0  0
 78224  1  0  0  0
 78225  1  0  0  0
 79226  1  0  0  0
 79227  1  0  0  0
 79228  1  0  0  0
 80229  1  0  0  0
 81230  1  0  0  0
 84231  1  0  0  0
 85232  1  0  0  0
 85233  1  0  0  0
 86234  1  0  0  0
 86235  1  0  0  0
 86236  1  0  0  0
 87237  1  0  0  0
 87238  1  0  0  0
 87239  1  0  0  0
 88240  1  0  0  0
 89241  1  0  0  0
 92242  1  0  0  0
 92243  1  0  0  0
 94244  1  0  0  0
 95245  1  0  0  0
 96246  1  0  0  0
 97247  1  0  0  0
 99248  1  0  0  0
100249  1  0  0  0
101250  1  0  0  0
104251  1  0  0  0
104252  1  0  0  0
105253  1  0  0  0
106254  1  0  0  0
106255  1  0  0  0
106256  1  0  0  0
107257  1  0  0  0
107258  1  0  0  0
107259  1  0  0  0
108260  1  0  0  0
109261  1  0  0  0
112262  1  0  0  0
112263  1  0  0  0
113264  1  0  0  0
113265  1  0  0  0
116266  1  0  0  0
117267  1  0  0  0
118268  1  0  0  0
121269  1  0  0  0
121270  1  0  0  0
122271  1  0  0  0
122272  1  0  0  0
125273  1  0  0  0
126274  1  0  0  0
127275  1  0  0  0
130276  1  0  0  0
131277  1  0  0  0
131278  1  0  0  0
132279  1  0  0  0
132280  1  0  0  0
132281  1  0  0  0
133282  1  0  0  0
133283  1  0  0  0
133284  1  0  0  0
134285  1  0  0  0
135286  1  0  0  0
138287  1  0  0  0
138288  1  0  0  0
139289  1  0  0  0
140290  1  0  0  0
140291  1  0  0  0
140292  1  0  0  0
141293  1  0  0  0
141294  1  0  0  0
141295  1  0  0  0
142296  1  0  0  0
143297  1  0  0  0
146298  1  0  0  0
147299  1  0  0  0
147300  1  0  0  0
147301  1  0  0  0
148302  1  0  0  0
148303  1  0  0  0
148304  1  0  0  0
149305  1  0  0  0
150306  1  0  0  0
153307  1  0  0  0
153308  1  0  0  0
154309  1  0  0  0
154310  1  0  0  0
155311  1  0  0  0
155312  1  0  0  0
156313  1  0  0  0
158314  1  0  0  0
158315  1  0  0  0
159316  1  0  0  0
160317  1  0  0  0
161318  1  0  0  0
163319  1  0  0  0
164320  1  0  0  0
165321  1  0  0  0
165322  1  0  0  0
165323  1  0  0  0
166324  1  0  0  0
166325  1  0  0  0
166326  1  0  0  0
M  END
$$$$
