2p3o_ligand
  -I-interpret- 

 80 85  0  0  0  0  0  0  0  0999 V2000
   16.0310   52.7420  -11.8090 N   0  0  0  0  0
   19.0260   54.1840   -8.5550 O   0  0  0  0  0
   18.1180   53.3930   -8.9270 C   0  0  0  0  0
   17.6460   52.4000   -8.0420 C   0  0  0  0  0
   17.9500   52.0310   -6.7660 N   0  3  0  0  0
   18.8150   52.5830   -5.7280 C   0  0  0  0  0
   17.1270   50.9870   -6.4890 C   0  0  0  0  0
   16.3130   50.7040   -7.5380 N   0  0  0  0  0
   16.6300   51.5660   -8.4960 C   0  0  0  0  0
   16.1310   51.7210   -9.7350 N   0  0  0  0  0
   16.5940   52.6640  -10.5740 C   0  0  0  0  0
   17.5860   53.5040  -10.1810 N   0  0  0  0  0
   14.8300   46.2790   -6.9960 O   0  0  0  0  0
   15.2190   49.6840   -7.7060 C   0  0  0  0  0
   15.6940   48.2600   -7.8910 C   0  0  0  0  0
   15.3480   47.5480   -6.6190 C   0  0  0  0  0
   14.2400   48.3680   -6.0010 C   0  0  0  0  0
   14.4590   48.4940   -4.5070 C   0  0  0  0  0
   14.2770   49.6630   -6.6310 O   0  0  0  0  0
   14.8880   47.7000   -8.9410 O   0  0  0  0  0
   15.6540   50.3130   -2.9500 P   0  0  0  0  0
   14.4850   49.9820   -2.0540 O   0  0  0  0  0
   16.0750   51.7560   -3.1470 O   0  0  0  0  0
   16.9620   49.5010   -2.5080 O   0  0  0  0  0
   15.4230   49.5350   -4.3430 O   0  0  0  0  0
   16.9990   48.3850   -1.3370 P   0  0  0  0  0
   17.2280   47.0090   -1.9500 O   0  0  0  0  0
   15.8400   48.6910   -0.4170 O   0  0  0  0  0
   18.3960   48.7480   -0.5940 O   0  0  0  0  0
   19.6800   49.4540   -1.3100 P   0  0  0  0  0
   20.8630   49.2210   -0.3880 O   0  0  0  0  0
   19.3400   50.8940   -1.7360 O   0  0  0  0  0
   19.9620   48.5430   -2.6100 O   0  0  0  0  0
   19.9310   49.1730   -3.8730 C   0  0  0  0  0
   19.6430   48.0880   -4.8720 C   0  0  0  0  0
   19.2070   48.7070   -6.0860 O   0  0  0  0  0
   20.9340   47.3390   -5.1540 C   0  0  0  0  0
   20.6720   45.9290   -5.2450 O   0  0  0  0  0
   21.3820   47.9060   -6.4860 C   0  0  0  0  0
   22.1210   46.9550   -7.2810 O   0  0  0  0  0
   20.0610   48.2920   -7.1410 C   0  0  0  0  0
   20.2600   49.4160   -8.0610 N   0  0  0  0  0
   21.0570   50.4820   -7.8520 C   0  0  0  0  0
   20.9890   51.2880   -8.9150 N   0  0  0  0  0
   20.1530   50.7030   -9.7690 C   0  0  0  0  0
   19.7540   51.1540  -11.0150 C   0  0  0  0  0
   20.2010   52.2360  -11.4400 N   0  0  0  0  0
   18.8950   50.4040  -11.7300 N   0  0  0  0  0
   18.4360   49.2430  -11.2130 C   0  0  0  0  0
   18.8090   48.7850   -9.9800 N   0  0  0  0  0
   19.6840   49.5210   -9.2500 C   0  0  0  0  0
   16.3521   53.4472  -12.4723 H   0  0  0  0  0
   19.8427   52.6108   -6.0901 H   0  0  0  0  0
   18.4873   53.5933   -5.4831 H   0  0  0  0  0
   18.7587   51.9557   -4.8384 H   0  0  0  0  0
   17.1207   50.4446   -5.5436 H   0  0  0  0  0
   15.3798   51.1056  -10.0472 H   0  0  0  0  0
   14.5932   45.7844   -6.2081 H   0  0  0  0  0
   14.7455   50.0293   -8.6251 H   0  0  0  0  0
   16.7566   48.1864   -8.1224 H   0  0  0  0  0
   16.1883   47.4265   -5.9355 H   0  0  0  0  0
   13.2690   47.8960   -6.1510 H   0  0  0  0  0
   14.8102   47.5562   -4.0767 H   0  0  0  0  0
   13.5296   48.7280   -3.9878 H   0  0  0  0  0
   15.1536   46.7906   -9.0963 H   0  0  0  0  0
   16.8282   51.7901   -3.7413 H   0  0  0  0  0
   18.0150   47.0316   -2.4992 H   0  0  0  0  0
   18.5737   50.8830   -2.3142 H   0  0  0  0  0
   20.8778   49.6676   -4.0901 H   0  0  0  0  0
   19.1692   49.9519   -3.9064 H   0  0  0  0  0
   18.8831   47.4057   -4.4911 H   0  0  0  0  0
   21.6900   47.4559   -4.3775 H   0  0  0  0  0
   21.4922   45.4631   -5.4232 H   0  0  0  0  0
   22.0765   48.7390   -6.3774 H   0  0  0  0  0
   22.3791   47.3646   -8.1100 H   0  0  0  0  0
   19.6459   47.4574   -7.7060 H   0  0  0  0  0
   21.6592   50.6580   -6.9607 H   0  0  0  0  0
   20.8523   52.7773  -10.8715 H   0  0  0  0  0
   19.9157   52.5809  -12.3566 H   0  0  0  0  0
   17.7398   48.6472  -11.8032 H   0  0  0  0  0
 11  1  2  0  0  0
  3  2  2  0  0  0
  4  3  1  0  0  0
  3 12  1  0  0  0
  4  5  4  0  0  0
  9  4  4  0  0  0
  5  6  1  0  0  0
  7  5  4  0  0  0
  8  7  4  0  0  0
  8  9  4  0  0  0
 14  8  1  0  0  0
  9 10  1  0  0  0
 10 11  1  0  0  0
 11 12  4  0  0  0
 16 13  1  0  0  0
 14 15  1  0  0  0
 19 14  1  0  0  0
 16 15  1  0  0  0
 15 20  1  0  0  0
 17 16  1  0  0  0
 18 17  1  0  0  0
 17 19  1  0  0  0
 25 18  1  0  0  0
 21 22  2  0  0  0
 21 23  1  0  0  0
 21 24  1  0  0  0
 21 25  1  0  0  0
 24 26  1  0  0  0
 26 27  1  0  0  0
 26 28  2  0  0  0
 26 29  1  0  0  0
 29 30  1  0  0  0
 30 31  2  0  0  0
 30 32  1  0  0  0
 30 33  1  0  0  0
 33 34  1  0  0  0
 34 35  1  0  0  0
 35 36  1  0  0  0
 35 37  1  0  0  0
 36 41  1  0  0  0
 37 38  1  0  0  0
 37 39  1  0  0  0
 39 40  1  0  0  0
 39 41  1  0  0  0
 41 42  1  0  0  0
 42 43  4  0  0  0
 42 51  4  0  0  0
 43 44  4  0  0  0
 44 45  4  0  0  0
 45 46  4  0  0  0
 45 51  4  0  0  0
 46 47  1  0  0  0
 46 48  4  0  0  0
 48 49  4  0  0  0
 49 50  4  0  0  0
 50 51  4  0  0  0
  1 52  1  0  0  0
  6 53  1  0  0  0
  6 54  1  0  0  0
  6 55  1  0  0  0
  7 56  1  0  0  0
 10 57  1  0  0  0
 13 58  1  0  0  0
 14 59  1  0  0  0
 15 60  1  0  0  0
 16 61  1  0  0  0
 17 62  1  0  0  0
 18 63  1  0  0  0
 18 64  1  0  0  0
 20 65  1  0  0  0
 23 66  1  0  0  0
 27 67  1  0  0  0
 32 68  1  0  0  0
 34 69  1  0  0  0
 34 70  1  0  0  0
 35 71  1  0  0  0
 37 72  1  0  0  0
 38 73  1  0  0  0
 39 74  1  0  0  0
 40 75  1  0  0  0
 41 76  1  0  0  0
 43 77  1  0  0  0
 47 78  1  0  0  0
 47 79  1  0  0  0
 49 80  1  0  0  0
M  END
$$$$
