2pll_ligand
  -I-interpret- 

 29 28  0  0  0  0  0  0  0  0999 V2000
   -4.6390   27.2320  -37.0970 N   0  3  0  0  0
   -4.4740   27.2370  -38.5850 C   0  0  0  0  0
   -4.0890   25.7600  -38.9760 C   0  0  0  0  0
   -3.8510   25.3690  -40.0940 O   0  0  0  0  0
   -4.0190   24.9450  -37.8980 O   0  0  0  0  0
   -3.3020   28.1890  -38.9670 C   0  0  0  0  0
   -1.9190   27.7260  -38.5060 C   0  0  0  0  0
   -0.8860   28.7820  -38.9530 C   0  0  0  0  0
    0.5450   28.3250  -38.7540 C   0  0  0  0  0
    1.7490   29.3470  -38.6540 B   0  0  0  0  0
    2.9770   28.6150  -38.4790 O   0  0  0  0  0
    1.6200   30.1600  -37.4690 O   0  0  0  0  0
    1.9460   30.2450  -39.7720 O   0  0  0  0  0
   -5.4060   26.6093  -36.8433 H   0  0  0  0  0
   -3.7763   26.9057  -36.6615 H   0  0  0  0  0
   -4.8467   28.1776  -36.7760 H   0  0  0  0  0
   -5.3771   27.5726  -39.0948 H   0  0  0  0  0
   -4.2426   25.4418  -37.1076 H   0  0  0  0  0
   -3.4961   29.1416  -38.4741 H   0  0  0  0  0
   -3.2732   28.2326  -40.0557 H   0  0  0  0  0
   -1.6809   26.7577  -38.9463 H   0  0  0  0  0
   -1.9011   27.6185  -37.4215 H   0  0  0  0  0
   -1.0384   29.6752  -38.3472 H   0  0  0  0  0
   -1.0334   28.9633  -40.0177 H   0  0  0  0  0
    0.7620   27.7633  -39.6626 H   0  0  0  0  0
    0.5280   27.8540  -37.7712 H   0  0  0  0  0
    3.7100   29.2319  -38.4179 H   0  0  0  0  0
    2.3563   30.7742  -37.4219 H   0  0  0  0  0
    2.7002   30.8123  -39.5962 H   0  0  0  0  0
  2  1  1  0  0  0
  2  3  1  0  0  0
  2  6  1  0  0  0
  3  4  2  0  0  0
  3  5  1  0  0  0
  6  7  1  0  0  0
  7  8  1  0  0  0
  8  9  1  0  0  0
  9 10  1  0  0  0
 10 11  1  0  0  0
 10 12  1  0  0  0
 10 13  1  0  0  0
  1 14  1  0  0  0
  1 15  1  0  0  0
  1 16  1  0  0  0
  2 17  1  0  0  0
  5 18  1  0  0  0
  6 19  1  0  0  0
  6 20  1  0  0  0
  7 21  1  0  0  0
  7 22  1  0  0  0
  8 23  1  0  0  0
  8 24  1  0  0  0
  9 25  1  0  0  0
  9 26  1  0  0  0
 11 27  1  0  0  0
 12 28  1  0  0  0
 13 29  1  0  0  0
M  END
$$$$
