2qm7_ligand
  -I-interpret- 

 42 44  0  0  0  0  0  0  0  0999 V2000
    5.6170  -18.5780   40.6160 P   0  0  0  0  0
    6.9360  -18.5810   39.9100 O   0  0  0  0  0
    4.9990  -17.2430   40.6770 O   0  0  0  0  0
    5.7700  -19.1080   42.0300 O   0  0  0  0  0
    4.5550  -19.5310   39.8650 O   0  0  0  0  0
    4.7400  -20.7670   38.9050 P   0  0  0  0  0
    5.1380  -20.4150   37.5050 O   0  0  0  0  0
    5.6320  -21.8390   39.4980 O   0  0  0  0  0
    3.2330  -21.2850   38.8640 O   0  0  0  0  0
    2.5040  -21.5590   40.0660 C   0  0  0  0  0
    1.3730  -22.4960   39.6820 C   0  0  0  0  0
    0.3820  -21.7720   38.9210 O   0  0  0  0  0
    1.8280  -23.6720   38.8310 C   0  0  0  0  0
    1.0340  -24.8220   39.1280 O   0  0  0  0  0
    1.5000  -23.2380   37.4190 C   0  0  0  0  0
    1.1880  -24.2510   36.4770 O   0  0  0  0  0
    0.2490  -22.3950   37.6330 C   0  0  0  0  0
    0.1530  -21.4110   36.5290 N   0  0  0  0  0
    1.0900  -20.5610   36.0180 C   0  0  0  0  0
    0.5470  -19.8250   35.0040 N   0  0  0  0  0
   -0.7330  -20.2040   34.8780 C   0  0  0  0  0
   -1.8880  -19.8590   34.0230 C   0  0  0  0  0
   -1.7290  -18.9930   33.1400 O   0  0  0  0  0
   -3.0580  -20.5240   34.1990 N   0  0  0  0  0
   -3.2350  -21.4500   35.1520 C   0  0  0  0  0
   -4.4340  -22.0730   35.3010 N   0  0  0  0  0
   -2.2330  -21.8140   35.9850 N   0  0  0  0  0
   -0.9950  -21.2220   35.8850 C   0  0  0  0  0
    7.2906  -19.4731   39.9005 H   0  0  0  0  0
    6.1725  -19.9791   42.0022 H   0  0  0  0  0
    5.3439  -22.0346   40.3926 H   0  0  0  0  0
    2.1164  -20.6396   40.5048 H   0  0  0  0  0
    3.1489  -22.0141   40.8177 H   0  0  0  0  0
    0.9711  -22.8840   40.6180 H   0  0  0  0  0
    2.8766  -23.9215   38.9933 H   0  0  0  0  0
    1.3265  -25.5596   38.5877 H   0  0  0  0  0
    2.3778  -22.7610   36.9831 H   0  0  0  0  0
    1.0004  -23.8482   35.6260 H   0  0  0  0  0
   -0.6685  -22.9833   37.6212 H   0  0  0  0  0
    2.1194  -20.4813   36.3674 H   0  0  0  0  0
   -5.2113  -21.8375   34.6839 H   0  0  0  0  0
   -2.3963  -22.5315   36.6913 H   0  0  0  0  0
  1  2  1  0  0  0
  1  3  2  0  0  0
  1  4  1  0  0  0
  1  5  1  0  0  0
  5  6  1  0  0  0
  6  7  2  0  0  0
  6  8  1  0  0  0
  6  9  1  0  0  0
  9 10  1  0  0  0
 10 11  1  0  0  0
 11 12  1  0  0  0
 11 13  1  0  0  0
 12 17  1  0  0  0
 13 14  1  0  0  0
 13 15  1  0  0  0
 15 16  1  0  0  0
 15 17  1  0  0  0
 17 18  1  0  0  0
 18 19  4  0  0  0
 18 28  4  0  0  0
 19 20  4  0  0  0
 20 21  4  0  0  0
 21 22  1  0  0  0
 21 28  4  0  0  0
 22 23  2  0  0  0
 22 24  1  0  0  0
 24 25  4  0  0  0
 25 26  2  0  0  0
 25 27  1  0  0  0
 27 28  1  0  0  0
  2 29  1  0  0  0
  4 30  1  0  0  0
  8 31  1  0  0  0
 10 32  1  0  0  0
 10 33  1  0  0  0
 11 34  1  0  0  0
 13 35  1  0  0  0
 14 36  1  0  0  0
 15 37  1  0  0  0
 16 38  1  0  0  0
 17 39  1  0  0  0
 19 40  1  0  0  0
 26 41  1  0  0  0
 27 42  1  0  0  0
M  END
$$$$
