2rcn_ligand
  -I-interpret- 

 42 44  0  0  0  0  0  0  0  0999 V2000
   18.3700   65.5040  -14.1160 P   0  0  0  0  0
   17.8300   66.0120  -12.8320 O   0  0  0  0  0
   17.3780   65.9200  -15.3050 O   0  0  0  0  0
   18.4630   63.9020  -14.0360 O   0  0  0  0  0
   19.8240   66.1860  -14.3680 O   0  0  0  0  0
   20.8560   65.1870  -15.1540 P   0  0  0  0  0
   20.2310   64.6020  -16.3640 O   0  0  0  0  0
   21.3190   64.0030  -14.1730 O   0  0  0  0  0
   22.1630   66.0400  -15.5680 O   0  0  0  0  0
   21.7500   67.1750  -16.3510 C   0  0  0  0  0
   22.9950   68.0110  -16.7290 C   0  0  0  0  0
   23.6530   68.5040  -15.5170 O   0  0  0  0  0
   24.0730   67.1810  -17.5110 C   0  0  0  0  0
   23.5320   65.9840  -18.0880 O   0  0  0  0  0
   25.0960   66.8430  -16.4230 C   0  0  0  0  0
   26.3900   66.6300  -16.9800 O   0  0  0  0  0
   25.0550   68.1240  -15.5790 C   0  0  0  0  0
   25.5980   67.9090  -14.2360 N   0  0  0  0  0
   25.1310   67.0230  -13.2920 C   0  0  0  0  0
   25.7590   67.1960  -12.1630 N   0  0  0  0  0
   26.5880   68.2580  -12.2780 C   0  0  0  0  0
   27.5790   68.8470  -11.4360 C   0  0  0  0  0
   27.7180   68.4680  -10.2870 O   0  0  0  0  0
   28.2810   69.9310  -11.9070 N   0  0  0  0  0
   28.1700   70.3190  -13.2280 C   0  0  0  0  0
   29.0040   71.2880  -13.7220 N   0  0  0  0  0
   27.3130   69.7160  -14.0470 N   0  0  0  0  0
   26.4730   68.7440  -13.6070 C   0  0  0  0  0
   17.7243   65.5928  -16.1384 H   0  0  0  0  0
   18.8118   63.5611  -14.8629 H   0  0  0  0  0
   21.7243   64.3792  -13.3883 H   0  0  0  0  0
   21.0596   67.7879  -15.7715 H   0  0  0  0  0
   21.2502   66.8324  -17.2570 H   0  0  0  0  0
   22.6295   68.8196  -17.3620 H   0  0  0  0  0
   24.4874   67.7317  -18.3554 H   0  0  0  0  0
   24.2265   65.5125  -18.5538 H   0  0  0  0  0
   24.8810   65.9302  -15.8674 H   0  0  0  0  0
   27.0092   66.4205  -16.2770 H   0  0  0  0  0
   25.6704   68.9060  -16.0238 H   0  0  0  0  0
   24.3489   66.2834  -13.4637 H   0  0  0  0  0
   29.7017   71.7183  -13.1150 H   0  0  0  0  0
   27.2861   69.9902  -15.0291 H   0  0  0  0  0
  1  2  2  0  0  0
  1  3  1  0  0  0
  1  4  1  0  0  0
  1  5  1  0  0  0
  5  6  1  0  0  0
  6  7  2  0  0  0
  6  8  1  0  0  0
  6  9  1  0  0  0
  9 10  1  0  0  0
 10 11  1  0  0  0
 11 12  1  0  0  0
 11 13  1  0  0  0
 12 17  1  0  0  0
 13 14  1  0  0  0
 13 15  1  0  0  0
 15 16  1  0  0  0
 15 17  1  0  0  0
 17 18  1  0  0  0
 18 19  4  0  0  0
 18 28  4  0  0  0
 19 20  4  0  0  0
 20 21  4  0  0  0
 21 22  1  0  0  0
 21 28  4  0  0  0
 22 23  2  0  0  0
 22 24  1  0  0  0
 24 25  4  0  0  0
 25 26  2  0  0  0
 25 27  1  0  0  0
 27 28  1  0  0  0
  3 29  1  0  0  0
  4 30  1  0  0  0
  8 31  1  0  0  0
 10 32  1  0  0  0
 10 33  1  0  0  0
 11 34  1  0  0  0
 13 35  1  0  0  0
 14 36  1  0  0  0
 15 37  1  0  0  0
 16 38  1  0  0  0
 17 39  1  0  0  0
 19 40  1  0  0  0
 26 41  1  0  0  0
 27 42  1  0  0  0
M  END
$$$$
