2v0n_ligand
  -I-interpret- 

 68 74  0  0  0  0  0  0  0  0999 V2000
   76.9100   63.9880   70.3130 P   0  0  0  0  0
   76.9010   62.5230   70.6000 O   0  0  0  0  0
   76.6540   64.8850   71.4970 O   0  0  0  0  0
   78.3650   64.4790   69.8580 O   0  0  0  0  0
   78.6450   65.5900   68.9930 C   0  0  0  0  0
   79.7110   64.9470   68.1420 C   0  0  0  0  0
   81.0290   65.3080   68.5460 O   0  0  0  0  0
   79.6630   64.9200   66.6080 C   0  0  0  0  0
   78.8420   65.9170   65.9820 O   0  0  0  0  0
   81.1500   64.9680   66.2760 C   0  0  0  0  0
   81.5480   66.2640   65.8560 O   0  0  0  0  0
   81.8670   64.6640   67.5830 C   0  0  0  0  0
   81.9860   63.1890   67.8010 N   0  0  0  0  0
   81.3600   62.4520   68.7520 C   0  0  0  0  0
   81.6930   61.1550   68.6480 N   0  0  0  0  0
   82.5620   61.0730   67.6270 C   0  0  0  0  0
   83.2430   59.9990   67.0890 C   0  0  0  0  0
   83.1270   58.8430   67.5550 O   0  0  0  0  0
   84.0360   60.2120   66.0540 N   0  0  0  0  0
   84.1980   61.4270   65.5530 C   0  0  0  0  0
   85.0320   61.5330   64.5110 N   0  0  0  0  0
   83.5660   62.5110   66.0520 N   0  0  0  0  0
   82.7380   62.3460   67.0950 C   0  0  0  0  0
   78.0470   65.2590   64.7380 P   0  0  0  0  0
   79.0000   64.3730   63.9590 O   0  0  0  0  0
   77.2440   66.3470   64.0260 O   0  0  0  0  0
   76.8850   64.3300   65.3010 O   0  0  0  0  0
   75.9060   65.0160   66.0720 C   0  0  0  0  0
   75.0920   64.0580   66.9180 C   0  0  0  0  0
   74.3960   63.0720   66.1410 O   0  0  0  0  0
   75.8020   63.3900   68.1050 C   0  0  0  0  0
   75.8050   64.3480   69.1750 O   0  0  0  0  0
   74.8830   62.1840   68.2610 C   0  0  0  0  0
   73.7770   62.5530   69.0500 O   0  0  0  0  0
   74.3330   61.8600   66.8920 C   0  0  0  0  0
   75.1650   60.8890   66.1700 N   0  0  0  0  0
   76.1560   61.1790   65.3130 C   0  0  0  0  0
   76.6740   60.0350   64.8230 N   0  0  0  0  0
   75.9860   59.0100   65.3770 C   0  0  0  0  0
   76.0470   57.6120   65.2690 C   0  0  0  0  0
   76.8630   56.9910   64.5410 O   0  0  0  0  0
   75.2060   56.8850   65.9810 N   0  0  0  0  0
   74.3240   57.4440   66.7730 C   0  0  0  0  0
   73.5040   56.6520   67.4480 N   0  0  0  0  0
   74.2200   58.7670   66.9160 N   0  0  0  0  0
   75.0450   59.5720   66.2260 C   0  0  0  0  0
   76.6796   65.8019   71.2138 H   0  0  0  0  0
   78.9452   66.5079   69.4984 H   0  0  0  0  0
   77.7869   65.9804   68.4460 H   0  0  0  0  0
   79.4221   63.9225   68.3764 H   0  0  0  0  0
   79.1525   64.0466   66.2024 H   0  0  0  0  0
   81.3800   64.2673   65.4734 H   0  0  0  0  0
   82.4868   66.2599   65.6553 H   0  0  0  0  0
   82.8971   65.0179   67.6249 H   0  0  0  0  0
   80.6786   62.8576   69.4998 H   0  0  0  0  0
   85.5013   60.7038   64.1469 H   0  0  0  0  0
   83.7147   63.4345   65.6452 H   0  0  0  0  0
   76.6961   66.8087   64.6650 H   0  0  0  0  0
   75.2307   65.5332   65.3904 H   0  0  0  0  0
   76.4167   65.7136   66.7358 H   0  0  0  0  0
   74.3747   64.7406   67.3737 H   0  0  0  0  0
   76.8459   63.0849   68.0318 H   0  0  0  0  0
   75.4263   61.3506   68.7063 H   0  0  0  0  0
   73.1928   61.7982   69.1531 H   0  0  0  0  0
   73.3311   61.4464   67.0067 H   0  0  0  0  0
   76.4902   62.1835   65.0534 H   0  0  0  0  0
   73.5709   55.6397   67.3425 H   0  0  0  0  0
   73.5204   59.1633   67.5436 H   0  0  0  0  0
  1  2  2  0  0  0
  1  3  1  0  0  0
  1  4  1  0  0  0
  1 32  1  0  0  0
  4  5  1  0  0  0
  5  6  1  0  0  0
  6  7  1  0  0  0
  6  8  1  0  0  0
  7 12  1  0  0  0
  8  9  1  0  0  0
  8 10  1  0  0  0
  9 24  1  0  0  0
 10 11  1  0  0  0
 10 12  1  0  0  0
 12 13  1  0  0  0
 13 14  4  0  0  0
 13 23  4  0  0  0
 14 15  4  0  0  0
 15 16  4  0  0  0
 16 17  1  0  0  0
 16 23  4  0  0  0
 17 18  2  0  0  0
 17 19  1  0  0  0
 19 20  4  0  0  0
 20 21  2  0  0  0
 20 22  1  0  0  0
 22 23  1  0  0  0
 24 25  2  0  0  0
 24 26  1  0  0  0
 24 27  1  0  0  0
 27 28  1  0  0  0
 28 29  1  0  0  0
 29 30  1  0  0  0
 29 31  1  0  0  0
 30 35  1  0  0  0
 31 32  1  0  0  0
 31 33  1  0  0  0
 33 34  1  0  0  0
 33 35  1  0  0  0
 35 36  1  0  0  0
 36 37  4  0  0  0
 36 46  4  0  0  0
 37 38  4  0  0  0
 38 39  4  0  0  0
 39 40  1  0  0  0
 39 46  4  0  0  0
 40 41  2  0  0  0
 40 42  1  0  0  0
 42 43  4  0  0  0
 43 44  2  0  0  0
 43 45  1  0  0  0
 45 46  1  0  0  0
  3 47  1  0  0  0
  5 48  1  0  0  0
  5 49  1  0  0  0
  6 50  1  0  0  0
  8 51  1  0  0  0
 10 52  1  0  0  0
 11 53  1  0  0  0
 12 54  1  0  0  0
 14 55  1  0  0  0
 21 56  1  0  0  0
 22 57  1  0  0  0
 26 58  1  0  0  0
 28 59  1  0  0  0
 28 60  1  0  0  0
 29 61  1  0  0  0
 31 62  1  0  0  0
 33 63  1  0  0  0
 34 64  1  0  0  0
 35 65  1  0  0  0
 37 66  1  0  0  0
 44 67  1  0  0  0
 45 68  1  0  0  0
M  END
$$$$
