2wik_ligand
  -I-interpret- 

 22 21  0  0  0  0  0  0  0  0999 V2000
  -13.8430  -41.0100  -22.3330 C   0  0  0  0  0
  -13.5100  -39.6010  -21.9450 C   0  0  0  0  0
  -14.8460  -38.9410  -21.5000 C   0  0  0  0  0
  -14.8070  -37.7050  -22.2170 N   0  0  0  0  0
  -16.3240  -36.8760  -22.9060 P   0  0  0  0  0
  -16.2370  -36.5580  -24.3850 O   0  0  0  0  0
  -17.7870  -37.8370  -22.5790 O   0  0  0  0  0
  -17.7750  -39.2950  -22.5800 C   0  0  0  0  0
  -19.1970  -39.8320  -22.1960 C   0  0  0  0  0
  -14.2697  -41.5304  -21.4756 H   0  0  0  0  0
  -14.5650  -40.9997  -23.1495 H   0  0  0  0  0
  -12.9356  -41.5209  -22.6551 H   0  0  0  0  0
  -13.0655  -39.0599  -22.7803 H   0  0  0  0  0
  -12.7760  -39.5801  -21.1395 H   0  0  0  0  0
  -14.9324  -38.8164  -20.4206 H   0  0  0  0  0
  -15.7257  -39.5455  -21.7208 H   0  0  0  0  0
  -13.9026  -37.2550  -22.3580 H   0  0  0  0  0
  -17.0445  -39.6520  -21.8540 H   0  0  0  0  0
  -17.5079  -39.6546  -23.5737 H   0  0  0  0  0
  -19.4639  -39.4717  -21.2025 H   0  0  0  0  0
  -19.9272  -39.4744  -22.9219 H   0  0  0  0  0
  -19.1850  -40.9219  -22.1976 H   0  0  0  0  0
  1  2  1  0  0  0
  2  3  1  0  0  0
  3  4  1  0  0  0
  4  5  1  0  0  0
  5  6  4  0  0  0
  5  7  1  0  0  0
  7  8  1  0  0  0
  8  9  1  0  0  0
  1 10  1  0  0  0
  1 11  1  0  0  0
  1 12  1  0  0  0
  2 13  1  0  0  0
  2 14  1  0  0  0
  3 15  1  0  0  0
  3 16  1  0  0  0
  4 17  1  0  0  0
  8 18  1  0  0  0
  8 19  1  0  0  0
  9 20  1  0  0  0
  9 21  1  0  0  0
  9 22  1  0  0  0
M  END
$$$$
