2xlc_ligand
  -I-interpret- 

 18 17  0  0  0  0  0  0  0  0999 V2000
  -15.5960   -2.7170   41.3390 C   0  0  0  0  0
  -16.3110   -4.0660   41.4390 C   0  0  0  0  0
  -19.6330    0.1610   39.7700 C   0  0  0  0  0
  -19.7810    1.6480   39.4340 C   0  0  0  0  0
  -16.3460   -1.7880   40.5440 O   0  0  0  0  0
  -18.2570   -0.1920   40.0020 O   0  0  0  0  0
  -17.9760   -1.1280   42.3580 O   0  0  0  0  0
  -17.8790   -1.4770   40.9180 P   0  0  0  0  0
  -14.6254   -2.8725   40.8680 H   0  0  0  0  0
  -15.4873   -2.3064   42.3428 H   0  0  0  0  0
  -17.2887   -3.9243   41.8997 H   0  0  0  0  0
  -16.4357   -4.4846   40.4403 H   0  0  0  0  0
  -15.7162   -4.7468   42.0480 H   0  0  0  0  0
  -20.0020   -0.4223   38.9264 H   0  0  0  0  0
  -20.2007   -0.0466   40.6770 H   0  0  0  0  0
  -19.4057    2.2459   40.2645 H   0  0  0  0  0
  -19.2093    1.8745   38.5340 H   0  0  0  0  0
  -20.8330    1.8781   39.2652 H   0  0  0  0  0
  1  2  1  0  0  0
  5  1  1  0  0  0
  3  4  1  0  0  0
  6  3  1  0  0  0
  8  5  1  0  0  0
  6  8  1  0  0  0
  8  7  4  0  0  0
  1  9  1  0  0  0
  1 10  1  0  0  0
  2 11  1  0  0  0
  2 12  1  0  0  0
  2 13  1  0  0  0
  3 14  1  0  0  0
  3 15  1  0  0  0
  4 16  1  0  0  0
  4 17  1  0  0  0
  4 18  1  0  0  0
M  END
$$$$
