2y4k_ligand
  -I-interpret- 

 42 44  0  0  0  0  0  0  0  0999 V2000
   38.7830  -45.1400   -5.0610 P   0  0  0  0  0
   40.0050  -45.0260   -5.9600 O   0  0  0  0  0
   37.5030  -45.1440   -5.9110 O   0  0  0  0  0
   38.8910  -46.4030   -4.2060 O   0  0  0  0  0
   38.8380  -43.8540   -4.0610 O   0  0  0  0  0
   38.2470  -42.3980   -4.3810 P   0  0  0  0  0
   39.3730  -41.3870   -4.3950 O   0  0  0  0  0
   37.4240  -42.3570   -5.6590 O   0  0  0  0  0
   37.3060  -42.3080   -3.0960 O   0  0  0  0  0
   36.3430  -43.3150   -2.7800 C   0  0  0  0  0
   35.0690  -42.6220   -2.2820 C   0  0  0  0  0
   35.1740  -42.1100   -0.9360 O   0  0  0  0  0
   34.7020  -41.4180   -3.1230 C   0  0  0  0  0
   33.2760  -41.3420   -3.1140 O   0  0  0  0  0
   35.3250  -40.2590   -2.3480 C   0  0  0  0  0
   34.6680  -39.0310   -2.5850 O   0  0  0  0  0
   35.1380  -40.6780   -0.9100 C   0  0  0  0  0
   36.2020  -40.2260    0.0050 N   0  0  0  0  0
   37.5430  -40.4200   -0.1190 C   0  0  0  0  0
   38.2130  -39.9060    0.9530 N   0  0  0  0  0
   37.2860  -39.3860    1.7830 C   0  0  0  0  0
   37.2950  -38.6690    3.0830 C   0  0  0  0  0
   38.3640  -38.4450    3.6770 O   0  0  0  0  0
   36.1190  -38.3050    3.6070 N   0  0  0  0  0
   34.9350  -38.5370    2.9840 C   0  0  0  0  0
   33.7820  -38.1200    3.5810 N   0  0  0  0  0
   34.8530  -39.1770    1.7870 N   0  0  0  0  0
   35.9660  -39.6010    1.1550 C   0  0  0  0  0
   36.7382  -45.2162   -5.3353 H   0  0  0  0  0
   38.1186  -46.4720   -3.6401 H   0  0  0  0  0
   36.7235  -43.0114   -5.6083 H   0  0  0  0  0
   36.7343  -43.9781   -2.0085 H   0  0  0  0  0
   36.1226  -43.9127   -3.6644 H   0  0  0  0  0
   34.3205  -43.4122   -2.3407 H   0  0  0  0  0
   35.0394  -41.4343   -4.1593 H   0  0  0  0  0
   32.9935  -40.5887   -3.6378 H   0  0  0  0  0
   36.3616  -40.0850   -2.6365 H   0  0  0  0  0
   35.0955  -38.3374   -2.0773 H   0  0  0  0  0
   34.2132  -40.2369   -0.5381 H   0  0  0  0  0
   38.0190  -40.9197   -0.9627 H   0  0  0  0  0
   33.8178  -37.6421    4.4814 H   0  0  0  0  0
   33.9396  -39.3381    1.3626 H   0  0  0  0  0
  1  2  2  0  0  0
  1  3  1  0  0  0
  1  4  1  0  0  0
  1  5  1  0  0  0
  5  6  1  0  0  0
  6  7  2  0  0  0
  6  8  1  0  0  0
  6  9  1  0  0  0
  9 10  1  0  0  0
 10 11  1  0  0  0
 11 12  1  0  0  0
 11 13  1  0  0  0
 12 17  1  0  0  0
 13 14  1  0  0  0
 13 15  1  0  0  0
 15 16  1  0  0  0
 15 17  1  0  0  0
 17 18  1  0  0  0
 18 19  4  0  0  0
 18 28  4  0  0  0
 19 20  4  0  0  0
 20 21  4  0  0  0
 21 22  1  0  0  0
 21 28  4  0  0  0
 22 23  2  0  0  0
 22 24  1  0  0  0
 24 25  4  0  0  0
 25 26  2  0  0  0
 25 27  1  0  0  0
 27 28  1  0  0  0
  3 29  1  0  0  0
  4 30  1  0  0  0
  8 31  1  0  0  0
 10 32  1  0  0  0
 10 33  1  0  0  0
 11 34  1  0  0  0
 13 35  1  0  0  0
 14 36  1  0  0  0
 15 37  1  0  0  0
 16 38  1  0  0  0
 17 39  1  0  0  0
 19 40  1  0  0  0
 26 41  1  0  0  0
 27 42  1  0  0  0
M  END
$$$$
