2y4l_ligand
  -I-interpret- 

 42 44  0  0  0  0  0  0  0  0999 V2000
   92.5460  -22.3780  111.5800 P   0  0  0  0  0
   92.2230  -23.3290  110.4540 O   0  0  0  0  0
   91.3140  -22.1090  112.3990 O   0  0  0  0  0
   92.9680  -21.0580  110.9530 O   0  0  0  0  0
   93.7400  -22.9840  112.4600 O   0  0  0  0  0
   95.2030  -23.3720  111.8680 P   0  0  0  0  0
   95.2790  -24.5740  110.9450 O   0  0  0  0  0
   95.8970  -22.2580  111.1470 O   0  0  0  0  0
   95.8820  -23.6170  113.3130 O   0  0  0  0  0
   95.5260  -22.7750  114.4000 C   0  0  0  0  0
   96.7780  -22.6090  115.2340 C   0  0  0  0  0
   97.1010  -23.8510  115.8380 O   0  0  0  0  0
   97.9780  -22.3460  114.3770 C   0  0  0  0  0
   98.8290  -21.5800  115.2330 O   0  0  0  0  0
   98.5230  -23.7330  114.0640 C   0  0  0  0  0
   99.9040  -23.7210  113.8430 O   0  0  0  0  0
   98.3540  -24.3730  115.3840 C   0  0  0  0  0
   98.2520  -25.8400  115.3750 N   0  0  0  0  0
   97.4050  -26.6170  114.6530 C   0  0  0  0  0
   97.5490  -27.9340  114.9670 N   0  0  0  0  0
   98.5170  -27.9790  115.9200 C   0  0  0  0  0
   99.1920  -29.0310  116.7140 C   0  0  0  0  0
   98.8570  -30.2080  116.5380 O   0  0  0  0  0
  100.1300  -28.6950  117.6150 N   0  0  0  0  0
  100.4760  -27.4070  117.8150 C   0  0  0  0  0
  101.4170  -27.1250  118.7300 N   0  0  0  0  0
   99.9140  -26.3860  117.1340 N   0  0  0  0  0
   98.9570  -26.6080  116.1990 C   0  0  0  0  0
   93.0158  -23.4935  109.9382 H   0  0  0  0  0
   93.7553  -21.1949  110.4210 H   0  0  0  0  0
   94.8458  -25.3231  111.3607 H   0  0  0  0  0
   94.7182  -23.2119  114.9870 H   0  0  0  0  0
   95.1589  -21.8114  114.0465 H   0  0  0  0  0
   96.5759  -21.7974  115.9329 H   0  0  0  0  0
   97.8302  -21.8110  113.4389 H   0  0  0  0  0
   99.6375  -21.3597  114.7646 H   0  0  0  0  0
   98.0464  -24.1827  113.1929 H   0  0  0  0  0
  100.2038  -24.6123  113.6500 H   0  0  0  0  0
   99.2294  -24.1627  115.9985 H   0  0  0  0  0
   96.6991  -26.2351  113.9154 H   0  0  0  0  0
  101.8561  -27.8785  119.2589 H   0  0  0  0  0
  100.2145  -25.4304  117.3260 H   0  0  0  0  0
  1  2  1  0  0  0
  1  3  2  0  0  0
  1  4  1  0  0  0
  1  5  1  0  0  0
  5  6  1  0  0  0
  6  7  1  0  0  0
  6  8  2  0  0  0
  6  9  1  0  0  0
  9 10  1  0  0  0
 10 11  1  0  0  0
 11 12  1  0  0  0
 11 13  1  0  0  0
 12 17  1  0  0  0
 13 14  1  0  0  0
 13 15  1  0  0  0
 15 16  1  0  0  0
 15 17  1  0  0  0
 17 18  1  0  0  0
 18 19  4  0  0  0
 18 28  4  0  0  0
 19 20  4  0  0  0
 20 21  4  0  0  0
 21 22  1  0  0  0
 21 28  4  0  0  0
 22 23  2  0  0  0
 22 24  1  0  0  0
 24 25  4  0  0  0
 25 26  2  0  0  0
 25 27  1  0  0  0
 27 28  1  0  0  0
  2 29  1  0  0  0
  4 30  1  0  0  0
  7 31  1  0  0  0
 10 32  1  0  0  0
 10 33  1  0  0  0
 11 34  1  0  0  0
 13 35  1  0  0  0
 14 36  1  0  0  0
 15 37  1  0  0  0
 16 38  1  0  0  0
 17 39  1  0  0  0
 19 40  1  0  0  0
 26 41  1  0  0  0
 27 42  1  0  0  0
M  END
$$$$
