3a1s_ligand
  -I-interpret- 

 42 44  0  0  0  0  0  0  0  0999 V2000
   -3.9050   23.1290  -11.0400 P   0  0  0  0  0
   -4.8640   21.9740  -11.1710 O   0  0  0  0  0
   -3.4550   23.6370  -12.3870 O   0  0  0  0  0
   -4.5030   24.2130  -10.1630 O   0  0  0  0  0
   -2.6680   22.4780  -10.2230 O   0  0  0  0  0
   -1.1010   22.7480  -10.2780 P   0  0  0  0  0
   -0.4340   21.9870  -11.3900 O   0  0  0  0  0
   -0.7870   24.2380  -10.3070 O   0  0  0  0  0
   -0.6220   22.0650   -8.9200 O   0  0  0  0  0
   -1.1480   22.4440   -7.6480 C   0  0  0  0  0
   -0.1630   22.0300   -6.5820 C   0  0  0  0  0
    0.0950   20.6240   -6.7280 O   0  0  0  0  0
    1.1610   22.7310   -6.7630 C   0  0  0  0  0
    1.7030   22.9330   -5.4570 O   0  0  0  0  0
    2.0120   21.7160   -7.4980 C   0  0  0  0  0
    3.4030   21.8600   -7.2380 O   0  0  0  0  0
    1.4860   20.4230   -6.9120 C   0  0  0  0  0
    1.6140   19.3070   -7.8570 N   0  0  0  0  0
    1.0420   19.2010   -9.0650 C   0  0  0  0  0
    1.3670   18.0150   -9.6470 N   0  0  0  0  0
    2.1470   17.3600   -8.7700 C   0  0  0  0  0
    2.8360   16.0640   -8.7230 C   0  0  0  0  0
    2.7360   15.2950   -9.7010 O   0  0  0  0  0
    3.5460   15.7770   -7.6210 N   0  0  0  0  0
    3.6470   16.6050   -6.5640 C   0  0  0  0  0
    4.3700   16.2520   -5.4760 N   0  0  0  0  0
    3.0370   17.8140   -6.5390 N   0  0  0  0  0
    2.3000   18.2100   -7.5890 C   0  0  0  0  0
   -2.8472   24.3700  -12.2646 H   0  0  0  0  0
   -3.8822   24.9414  -10.0884 H   0  0  0  0  0
   -1.2364   24.6728   -9.5786 H   0  0  0  0  0
   -2.1070   21.9538   -7.4801 H   0  0  0  0  0
   -1.3020   23.5226   -7.6146 H   0  0  0  0  0
   -0.5867   22.2811   -5.6096 H   0  0  0  0  0
    1.0998   23.6834   -7.2895 H   0  0  0  0  0
    2.5502   23.3788   -5.5288 H   0  0  0  0  0
    1.9414   21.8011   -8.5824 H   0  0  0  0  0
    3.8897   21.1933   -7.7282 H   0  0  0  0  0
    2.0378   20.1852   -6.0026 H   0  0  0  0  0
    0.4046   19.9602   -9.5182 H   0  0  0  0  0
    4.8459   15.3502   -5.4505 H   0  0  0  0  0
    3.1371   18.4213   -5.7256 H   0  0  0  0  0
  1  2  2  0  0  0
  1  3  1  0  0  0
  1  4  1  0  0  0
  1  5  1  0  0  0
  5  6  1  0  0  0
  6  7  2  0  0  0
  6  8  1  0  0  0
  6  9  1  0  0  0
  9 10  1  0  0  0
 10 11  1  0  0  0
 11 12  1  0  0  0
 11 13  1  0  0  0
 12 17  1  0  0  0
 13 14  1  0  0  0
 13 15  1  0  0  0
 15 16  1  0  0  0
 15 17  1  0  0  0
 17 18  1  0  0  0
 18 19  4  0  0  0
 18 28  4  0  0  0
 19 20  4  0  0  0
 20 21  4  0  0  0
 21 22  1  0  0  0
 21 28  4  0  0  0
 22 23  2  0  0  0
 22 24  1  0  0  0
 24 25  4  0  0  0
 25 26  2  0  0  0
 25 27  1  0  0  0
 27 28  1  0  0  0
  3 29  1  0  0  0
  4 30  1  0  0  0
  8 31  1  0  0  0
 10 32  1  0  0  0
 10 33  1  0  0  0
 11 34  1  0  0  0
 13 35  1  0  0  0
 14 36  1  0  0  0
 15 37  1  0  0  0
 16 38  1  0  0  0
 17 39  1  0  0  0
 19 40  1  0  0  0
 26 41  1  0  0  0
 27 42  1  0  0  0
M  END
$$$$
