3a1t_ligand
  -I-interpret- 

 42 44  0  0  0  0  0  0  0  0999 V2000
   25.7160   16.3590   24.6280 P   0  0  0  0  0
   24.5450   16.4820   25.5690 O   0  0  0  0  0
   26.6170   15.2300   25.0920 O   0  0  0  0  0
   25.2170   16.0310   23.2480 O   0  0  0  0  0
   26.6050   17.6940   24.4460 O   0  0  0  0  0
   26.8560   18.8990   25.5000 P   0  0  0  0  0
   27.1630   18.4160   26.8970 O   0  0  0  0  0
   25.6600   19.8460   25.4870 O   0  0  0  0  0
   28.0990   19.5780   24.7850 O   0  0  0  0  0
   29.3090   18.8420   24.5970 C   0  0  0  0  0
   30.4710   19.8120   24.4950 C   0  0  0  0  0
   30.2960   20.7010   23.3870 O   0  0  0  0  0
   30.5430   20.6730   25.7340 C   0  0  0  0  0
   31.9230   20.8670   26.0100 O   0  0  0  0  0
   29.9950   22.0170   25.3110 C   0  0  0  0  0
   30.6740   23.0570   26.0080 O   0  0  0  0  0
   30.3090   22.0690   23.8310 C   0  0  0  0  0
   29.2680   22.7970   23.0580 N   0  0  0  0  0
   27.9370   22.5800   23.1030 C   0  0  0  0  0
   27.2770   23.4040   22.2400 N   0  0  0  0  0
   28.2150   24.1400   21.6220 C   0  0  0  0  0
   28.2130   25.1990   20.5980 C   0  0  0  0  0
   27.1160   25.5550   20.1150 O   0  0  0  0  0
   29.3800   25.7220   20.2070 N   0  0  0  0  0
   30.5610   25.3140   20.7270 C   0  0  0  0  0
   31.7110   25.8810   20.2860 N   0  0  0  0  0
   30.6380   24.3420   21.6760 N   0  0  0  0  0
   29.5240   23.7320   22.1500 C   0  0  0  0  0
   24.8643   16.6914   26.4498 H   0  0  0  0  0
   26.9443   15.4248   25.9732 H   0  0  0  0  0
   25.4913   20.1342   24.5870 H   0  0  0  0  0
   29.2415   18.2540   23.6817 H   0  0  0  0  0
   29.4648   18.1715   25.4422 H   0  0  0  0  0
   31.3765   19.2176   24.3729 H   0  0  0  0  0
   30.0151   20.2445   26.5860 H   0  0  0  0  0
   32.0177   21.4122   26.7945 H   0  0  0  0  0
   28.9332   22.1432   25.5225 H   0  0  0  0  0
   30.3213   23.9070   25.7348 H   0  0  0  0  0
   31.2580   22.5825   23.6766 H   0  0  0  0  0
   27.4533   21.8433   23.7445 H   0  0  0  0  0
   31.6799   26.6067   19.5699 H   0  0  0  0  0
   31.5513   24.0671   22.0376 H   0  0  0  0  0
  1  2  1  0  0  0
  1  3  1  0  0  0
  1  4  2  0  0  0
  1  5  1  0  0  0
  5  6  1  0  0  0
  6  7  2  0  0  0
  6  8  1  0  0  0
  6  9  1  0  0  0
  9 10  1  0  0  0
 10 11  1  0  0  0
 11 12  1  0  0  0
 11 13  1  0  0  0
 12 17  1  0  0  0
 13 14  1  0  0  0
 13 15  1  0  0  0
 15 16  1  0  0  0
 15 17  1  0  0  0
 17 18  1  0  0  0
 18 19  4  0  0  0
 18 28  4  0  0  0
 19 20  4  0  0  0
 20 21  4  0  0  0
 21 22  1  0  0  0
 21 28  4  0  0  0
 22 23  2  0  0  0
 22 24  1  0  0  0
 24 25  4  0  0  0
 25 26  2  0  0  0
 25 27  1  0  0  0
 27 28  1  0  0  0
  2 29  1  0  0  0
  3 30  1  0  0  0
  8 31  1  0  0  0
 10 32  1  0  0  0
 10 33  1  0  0  0
 11 34  1  0  0  0
 13 35  1  0  0  0
 14 36  1  0  0  0
 15 37  1  0  0  0
 16 38  1  0  0  0
 17 39  1  0  0  0
 19 40  1  0  0  0
 26 41  1  0  0  0
 27 42  1  0  0  0
M  END
$$$$
