3au6_ligand
  -I-interpret- 

 45 47  0  0  0  0  0  0  0  0999 V2000
    1.5300  -30.7990    1.8770 P   0  0  0  0  0
    0.0500  -30.5600    1.6300 O   0  0  0  0  0
    1.8060  -31.7320    3.0160 O   0  0  0  0  0
    2.2310  -31.1540    0.5950 O   0  0  0  0  0
    2.1860  -29.4630    2.5280 O   0  0  0  0  0
    1.3550  -28.4640    3.5250 P   0  0  0  0  0
    2.1380  -28.1280    4.7860 O   0  0  0  0  0
    0.9990  -27.2680    2.6870 O   0  0  0  0  0
   -0.0040  -29.2610    3.9780 O   0  0  0  0  0
   -0.0950  -30.2830    5.2360 P   0  0  0  0  0
   -0.7300  -31.5300    4.7370 O   0  0  0  0  0
    1.2020  -30.3100    6.0350 O   0  0  0  0  0
   -1.1870  -29.6980    6.2460 O   0  0  0  0  0
   -1.8120  -28.4150    6.1380 C   0  0  0  0  0
   -1.5000  -27.3580    7.2350 C   0  0  0  0  0
   -1.5030  -27.7820    8.6170 O   0  0  0  0  0
   -0.1540  -26.6450    7.0610 C   0  0  0  0  0
    0.0450  -25.9600    8.4080 C   0  0  0  0  0
   -0.8200  -26.7670    9.3680 C   0  0  0  0  0
    0.1160  -27.3560   10.3220 N   0  0  0  0  0
    0.8670  -28.4440   10.0860 C   0  0  0  0  0
    1.6560  -28.7340   11.1520 N   0  0  0  0  0
    1.4030  -27.8090   12.0890 C   0  0  0  0  0
    1.9010  -27.5340   13.4590 C   0  0  0  0  0
    2.7700  -28.2730   14.0090 O   0  0  0  0  0
    1.3690  -26.4660   14.0950 N   0  0  0  0  0
    0.4370  -25.6570   13.5340 C   0  0  0  0  0
   -0.0220  -24.6060   14.2590 N   0  0  0  0  0
   -0.0540  -25.8580   12.2770 N   0  0  0  0  0
    0.3880  -26.8940   11.5300 C   0  0  0  0  0
   -0.0566  -29.9565    0.8910 H   0  0  0  0  0
    2.0035  -30.5117   -0.0812 H   0  0  0  0  0
    2.3287  -28.9362    5.2678 H   0  0  0  0  0
    1.4526  -29.4127    6.2666 H   0  0  0  0  0
   -2.8822  -28.6066    6.2164 H   0  0  0  0  0
   -1.4365  -27.9872    5.2084 H   0  0  0  0  0
   -2.3598  -26.7112    7.0605 H   0  0  0  0  0
   -0.1507  -25.9449    6.2255 H   0  0  0  0  0
    0.6574  -27.3280    6.8095 H   0  0  0  0  0
   -0.2407  -24.9084    8.3813 H   0  0  0  0  0
    1.0919  -25.9443    8.7112 H   0  0  0  0  0
   -1.5734  -26.1701    9.8821 H   0  0  0  0  0
    0.8458  -29.0188    9.1601 H   0  0  0  0  0
    0.3343  -24.4415   15.2005 H   0  0  0  0  0
   -0.7578  -25.2236   11.8994 H   0  0  0  0  0
  1  2  1  0  0  0
  1  3  2  0  0  0
  1  4  1  0  0  0
  1  5  1  0  0  0
  5  6  1  0  0  0
  6  7  1  0  0  0
  6  8  2  0  0  0
  6  9  1  0  0  0
  9 10  1  0  0  0
 10 11  2  0  0  0
 10 12  1  0  0  0
 10 13  1  0  0  0
 13 14  1  0  0  0
 14 15  1  0  0  0
 15 16  1  0  0  0
 15 17  1  0  0  0
 16 19  1  0  0  0
 17 18  1  0  0  0
 18 19  1  0  0  0
 19 20  1  0  0  0
 20 21  4  0  0  0
 20 30  4  0  0  0
 21 22  4  0  0  0
 22 23  4  0  0  0
 23 24  1  0  0  0
 23 30  4  0  0  0
 24 25  2  0  0  0
 24 26  1  0  0  0
 26 27  4  0  0  0
 27 28  2  0  0  0
 27 29  1  0  0  0
 29 30  1  0  0  0
  2 31  1  0  0  0
  4 32  1  0  0  0
  7 33  1  0  0  0
 12 34  1  0  0  0
 14 35  1  0  0  0
 14 36  1  0  0  0
 15 37  1  0  0  0
 17 38  1  0  0  0
 17 39  1  0  0  0
 18 40  1  0  0  0
 18 41  1  0  0  0
 19 42  1  0  0  0
 21 43  1  0  0  0
 28 44  1  0  0  0
 29 45  1  0  0  0
M  END
$$$$
