3b78_ligand
  -I-interpret- 

 72 76  0  0  0  0  0  0  0  0999 V2000
    3.7620   -5.3720   94.4750 P   0  0  0  0  0
    2.2870   -5.2010   94.7260 O   0  0  0  0  0
    4.6360   -5.8490   95.6040 O   0  0  0  0  0
    4.2930   -3.9290   93.9930 O   0  0  0  0  0
    3.4220   -3.2210   93.0910 C   0  0  0  0  0
    4.1230   -2.8800   91.7620 C   0  0  0  0  0
    4.6410   -1.5330   91.7140 O   0  0  0  0  0
    5.2890   -3.8210   91.3980 C   0  0  0  0  0
    4.8760   -4.7230   90.3630 O   0  0  0  0  0
    6.3130   -2.8830   90.7790 C   0  0  0  0  0
    6.7390   -3.3910   89.5120 O   0  0  0  0  0
    5.5290   -1.5840   90.5980 C   0  0  0  0  0
    6.3730   -0.3750   90.4680 N   0  0  0  0  0
    6.2380    0.5640   89.5310 C   0  0  0  0  0
    7.1600    1.5320   89.7260 N   0  0  0  0  0
    7.8710    1.1870   90.8200 C   0  0  0  0  0
    8.9290    1.7650   91.5060 C   0  0  0  0  0
    9.4530    2.9400   91.0760 N   0  0  0  0  0
    9.4190    1.1360   92.5980 N   0  0  0  0  0
    8.9060   -0.0220   93.0250 C   0  0  0  0  0
    7.8870   -0.6010   92.3850 N   0  0  0  0  0
    7.3530   -0.0100   91.2890 C   0  0  0  0  0
    3.9660   -6.3000   93.1750 O   0  0  0  0  0
    5.2140   -7.3020   92.9890 P   0  0  0  0  0
    6.2910   -7.0040   94.0040 O   0  0  0  0  0
    5.5610   -7.3820   91.5230 O   0  0  0  0  0
    4.5140   -8.6900   93.4000 O   0  0  0  0  0
    4.3640   -8.9310   94.7970 C   0  0  0  0  0
    4.2410  -10.4180   95.0850 C   0  0  0  0  0
    4.8310  -11.1980   94.0470 O   0  0  0  0  0
    4.9940  -10.7160   96.3640 C   0  0  0  0  0
    4.0690  -10.9040   97.4390 O   0  0  0  0  0
    5.8000  -11.9660   96.0730 C   0  0  0  0  0
    5.2630  -13.0810   96.7980 O   0  0  0  0  0
    5.6780  -12.2200   94.5790 C   0  0  0  0  0
    6.9890  -12.1140   93.9260 N   0  0  0  0  0
    7.1530  -11.2300   92.9300 C   0  0  0  0  0
    8.3740  -11.0990   92.2720 C   0  0  0  0  0
    8.5330  -10.1010   91.1580 C   0  0  0  0  0
    9.4720  -10.2110   90.3890 O   0  0  0  0  0
    7.6340   -9.1300   91.0200 N   0  0  0  0  0
    9.4360  -11.9110   92.6480 C   0  0  0  0  0
    9.2440  -12.8260   93.6770 C   0  0  0  0  0
    7.9990  -12.9150   94.2950 C   0  0  0  0  0
    1.8603   -4.8940   93.9227 H   0  0  0  0  0
    3.1225   -2.2878   93.5680 H   0  0  0  0  0
    2.5663   -3.8595   92.8714 H   0  0  0  0  0
    3.3176   -3.0036   91.0380 H   0  0  0  0  0
    5.6445   -4.3944   92.2541 H   0  0  0  0  0
    4.2258   -5.3355   90.7146 H   0  0  0  0  0
    7.2118   -2.7595   91.3832 H   0  0  0  0  0
    7.3848   -2.7926   89.1293 H   0  0  0  0  0
    4.9911   -1.5868   89.6500 H   0  0  0  0  0
    5.4978    0.5524   88.7310 H   0  0  0  0  0
    9.0690    3.3974   90.2491 H   0  0  0  0  0
   10.2310    3.3661   91.5795 H   0  0  0  0  0
    9.3259   -0.5012   93.9094 H   0  0  0  0  0
    5.9053   -6.9887   94.8830 H   0  0  0  0  0
    3.4580   -8.4326   95.1418 H   0  0  0  0  0
    5.2435   -8.5470   95.3138 H   0  0  0  0  0
    3.1830  -10.6684   95.1623 H   0  0  0  0  0
    5.6506   -9.9016   96.6702 H   0  0  0  0  0
    4.5527  -11.0925   98.2466 H   0  0  0  0  0
    6.8401  -11.8398   96.3737 H   0  0  0  0  0
    5.7813  -13.8658   96.6057 H   0  0  0  0  0
    5.2791  -13.2194   94.4051 H   0  0  0  0  0
    6.3143  -10.6019   92.6297 H   0  0  0  0  0
    7.7224   -8.4576   90.2581 H   0  0  0  0  0
    6.8563   -9.0580   91.6761 H   0  0  0  0  0
   10.4006  -11.8326   92.1465 H   0  0  0  0  0
   10.0628  -13.4698   93.9981 H   0  0  0  0  0
    7.8437  -13.6454   95.0890 H   0  0  0  0  0
  1  2  1  0  0  0
  1  3  2  0  0  0
  1  4  1  0  0  0
  1 23  1  0  0  0
  4  5  1  0  0  0
  5  6  1  0  0  0
  6  7  1  0  0  0
  6  8  1  0  0  0
  7 12  1  0  0  0
  8  9  1  0  0  0
  8 10  1  0  0  0
 10 11  1  0  0  0
 10 12  1  0  0  0
 12 13  1  0  0  0
 13 14  4  0  0  0
 13 22  4  0  0  0
 14 15  4  0  0  0
 15 16  4  0  0  0
 16 17  4  0  0  0
 16 22  4  0  0  0
 17 18  1  0  0  0
 17 19  4  0  0  0
 19 20  4  0  0  0
 20 21  4  0  0  0
 21 22  4  0  0  0
 23 24  1  0  0  0
 24 25  1  0  0  0
 24 26  2  0  0  0
 24 27  1  0  0  0
 27 28  1  0  0  0
 28 29  1  0  0  0
 29 30  1  0  0  0
 29 31  1  0  0  0
 30 35  1  0  0  0
 31 32  1  0  0  0
 31 33  1  0  0  0
 33 34  1  0  0  0
 33 35  1  0  0  0
 35 36  1  0  0  0
 36 37  4  0  0  0
 36 44  4  0  0  0
 37 38  4  0  0  0
 38 39  1  0  0  0
 38 42  4  0  0  0
 39 40  2  0  0  0
 39 41  1  0  0  0
 42 43  4  0  0  0
 43 44  4  0  0  0
  2 45  1  0  0  0
  5 46  1  0  0  0
  5 47  1  0  0  0
  6 48  1  0  0  0
  8 49  1  0  0  0
  9 50  1  0  0  0
 10 51  1  0  0  0
 11 52  1  0  0  0
 12 53  1  0  0  0
 14 54  1  0  0  0
 18 55  1  0  0  0
 18 56  1  0  0  0
 20 57  1  0  0  0
 25 58  1  0  0  0
 28 59  1  0  0  0
 28 60  1  0  0  0
 29 61  1  0  0  0
 31 62  1  0  0  0
 32 63  1  0  0  0
 33 64  1  0  0  0
 34 65  1  0  0  0
 35 66  1  0  0  0
 37 67  1  0  0  0
 41 68  1  0  0  0
 41 69  1  0  0  0
 42 70  1  0  0  0
 43 71  1  0  0  0
 44 72  1  0  0  0
M  END
$$$$
