3b82_ligand
  -I-interpret- 

 72 76  0  0  0  0  0  0  0  0999 V2000
    3.9580   -5.2490   94.2850 P   0  0  0  0  0
    2.5650   -4.9230   94.7560 O   0  0  0  0  0
    4.9940   -5.7210   95.2780 O   0  0  0  0  0
    4.4890   -3.9060   93.5710 O   0  0  0  0  0
    3.5710   -3.1380   92.7910 C   0  0  0  0  0
    4.1130   -2.8040   91.3970 C   0  0  0  0  0
    4.5330   -1.4380   91.2540 O   0  0  0  0  0
    5.2810   -3.6720   90.9280 C   0  0  0  0  0
    4.8600   -4.5390   89.8700 O   0  0  0  0  0
    6.3220   -2.7030   90.3970 C   0  0  0  0  0
    6.8670   -3.1440   89.1500 O   0  0  0  0  0
    5.5300   -1.4170   90.2250 C   0  0  0  0  0
    6.3980   -0.2030   90.1650 N   0  0  0  0  0
    6.2540    0.7700   89.2510 C   0  0  0  0  0
    7.1820    1.7240   89.4620 N   0  0  0  0  0
    7.9150    1.3460   90.5240 C   0  0  0  0  0
    8.9870    1.9410   91.1680 C   0  0  0  0  0
    9.4650    3.1310   90.7250 N   0  0  0  0  0
    9.5340    1.3140   92.2310 N   0  0  0  0  0
    9.0440    0.1360   92.6520 C   0  0  0  0  0
    8.0040   -0.4600   92.0450 N   0  0  0  0  0
    7.4140    0.1320   90.9760 C   0  0  0  0  0
    3.8810   -6.3540   93.1180 O   0  0  0  0  0
    5.1470   -7.3030   92.8100 P   0  0  0  0  0
    6.4150   -6.5320   93.0850 O   0  0  0  0  0
    4.9560   -7.9470   91.4610 O   0  0  0  0  0
    4.9080   -8.4120   93.9520 O   0  0  0  0  0
    3.8250   -9.3250   93.7900 C   0  0  0  0  0
    4.1160  -10.6410   94.4940 C   0  0  0  0  0
    4.9140  -11.4380   93.6190 O   0  0  0  0  0
    4.8690  -10.4730   95.7950 C   0  0  0  0  0
    3.9750  -10.7210   96.8800 O   0  0  0  0  0
    5.9340  -11.5500   95.7230 C   0  0  0  0  0
    5.6450  -12.5580   96.6980 O   0  0  0  0  0
    5.8840  -12.1830   94.3390 C   0  0  0  0  0
    7.1740  -12.0220   93.6590 N   0  0  0  0  0
    7.2810  -11.1450   92.6470 C   0  0  0  0  0
    8.4910  -10.9640   91.9780 C   0  0  0  0  0
    8.6100   -9.9830   90.8460 C   0  0  0  0  0
    9.5050  -10.1340   90.0310 O   0  0  0  0  0
    7.7360   -8.9830   90.7530 N   0  0  0  0  0
    9.5980  -11.7120   92.3570 C   0  0  0  0  0
    9.4640  -12.6160   93.4010 C   0  0  0  0  0
    8.2310  -12.7600   94.0330 C   0  0  0  0  0
    5.8223   -5.8846   94.8211 H   0  0  0  0  0
    3.3921   -2.1986   93.3141 H   0  0  0  0  0
    2.6639   -3.7290   92.6643 H   0  0  0  0  0
    3.2427   -3.0089   90.7736 H   0  0  0  0  0
    5.6661   -4.2927   91.7370 H   0  0  0  0  0
    4.2015   -5.1528   90.2036 H   0  0  0  0  0
    7.1820   -2.5983   91.0584 H   0  0  0  0  0
    7.5195   -2.5094   88.8449 H   0  0  0  0  0
    5.0326   -1.3584   89.2569 H   0  0  0  0  0
    5.5031    0.7857   88.4611 H   0  0  0  0  0
    9.0349    3.5853   89.9194 H   0  0  0  0  0
   10.2544    3.5713   91.1976 H   0  0  0  0  0
    9.5040   -0.3509   93.5119 H   0  0  0  0  0
    6.3892   -6.1843   93.9795 H   0  0  0  0  0
    3.6860   -9.5193   92.7265 H   0  0  0  0  0
    2.9274   -8.8854   94.2250 H   0  0  0  0  0
    3.1584  -11.1037   94.7328 H   0  0  0  0  0
    5.2904   -9.4786   95.9425 H   0  0  0  0  0
    4.4449  -10.6165   97.7106 H   0  0  0  0  0
    6.9176  -11.1202   95.9125 H   0  0  0  0  0
    6.3163  -13.2430   96.6571 H   0  0  0  0  0
    5.6525  -13.2463   94.4017 H   0  0  0  0  0
    6.4086  -10.5660   92.3442 H   0  0  0  0  0
    7.8038   -8.3162   89.9841 H   0  0  0  0  0
    6.9986   -8.8836   91.4506 H   0  0  0  0  0
   10.5526  -11.5914   91.8448 H   0  0  0  0  0
   10.3186  -13.2101   93.7248 H   0  0  0  0  0
    8.1230  -13.4820   94.8424 H   0  0  0  0  0
  1  2  2  0  0  0
  1  3  1  0  0  0
  1  4  1  0  0  0
  1 23  1  0  0  0
  4  5  1  0  0  0
  5  6  1  0  0  0
  6  7  1  0  0  0
  6  8  1  0  0  0
  7 12  1  0  0  0
  8  9  1  0  0  0
  8 10  1  0  0  0
 10 11  1  0  0  0
 10 12  1  0  0  0
 12 13  1  0  0  0
 13 14  4  0  0  0
 13 22  4  0  0  0
 14 15  4  0  0  0
 15 16  4  0  0  0
 16 17  4  0  0  0
 16 22  4  0  0  0
 17 18  1  0  0  0
 17 19  4  0  0  0
 19 20  4  0  0  0
 20 21  4  0  0  0
 21 22  4  0  0  0
 23 24  1  0  0  0
 24 25  1  0  0  0
 24 26  2  0  0  0
 24 27  1  0  0  0
 27 28  1  0  0  0
 28 29  1  0  0  0
 29 30  1  0  0  0
 29 31  1  0  0  0
 30 35  1  0  0  0
 31 32  1  0  0  0
 31 33  1  0  0  0
 33 34  1  0  0  0
 33 35  1  0  0  0
 35 36  1  0  0  0
 36 37  4  0  0  0
 36 44  4  0  0  0
 37 38  4  0  0  0
 38 39  1  0  0  0
 38 42  4  0  0  0
 39 40  2  0  0  0
 39 41  1  0  0  0
 42 43  4  0  0  0
 43 44  4  0  0  0
  3 45  1  0  0  0
  5 46  1  0  0  0
  5 47  1  0  0  0
  6 48  1  0  0  0
  8 49  1  0  0  0
  9 50  1  0  0  0
 10 51  1  0  0  0
 11 52  1  0  0  0
 12 53  1  0  0  0
 14 54  1  0  0  0
 18 55  1  0  0  0
 18 56  1  0  0  0
 20 57  1  0  0  0
 25 58  1  0  0  0
 28 59  1  0  0  0
 28 60  1  0  0  0
 29 61  1  0  0  0
 31 62  1  0  0  0
 32 63  1  0  0  0
 33 64  1  0  0  0
 34 65  1  0  0  0
 35 66  1  0  0  0
 37 67  1  0  0  0
 41 68  1  0  0  0
 41 69  1  0  0  0
 42 70  1  0  0  0
 43 71  1  0  0  0
 44 72  1  0  0  0
M  END
$$$$
