3bb1_ligand
  -I-interpret- 

 48 50  0  0  0  0  0  0  0  0999 V2000
   -0.7690   55.4090   40.6870 P   0  0  0  0  0
   -1.0110   54.7390   39.3630 O   0  0  0  0  0
   -2.1510   55.7400   41.2400 O   0  0  0  0  0
    0.1930   56.5400   40.6180 O   0  0  0  0  0
   -0.0870   54.1750   41.6390 N   0  0  0  0  0
   -0.1060   54.1980   43.2850 P   0  0  0  0  0
    0.9980   54.9000   43.9410 O   0  0  0  0  0
   -1.4690   54.5760   43.8030 O   0  0  0  0  0
    0.1760   52.6580   43.6590 O   0  0  0  0  0
   -1.0530   51.6310   43.9100 P   0  0  0  0  0
   -1.6910   51.8480   45.2410 O   0  0  0  0  0
   -1.8420   51.6730   42.6650 O   0  0  0  0  0
   -0.3040   50.2820   44.1050 O   0  0  0  0  0
    0.6480   49.9400   43.0920 C   0  0  0  0  0
    0.8640   48.4650   43.0600 C   0  0  0  0  0
    1.7860   48.2370   44.1470 O   0  0  0  0  0
   -0.3560   47.5900   43.3230 C   0  0  0  0  0
   -0.1490   46.3210   42.7030 O   0  0  0  0  0
   -0.3210   47.2870   44.7720 C   0  0  0  0  0
   -0.8350   46.0000   45.0570 O   0  0  0  0  0
    1.1970   47.3210   45.0520 C   0  0  0  0  0
    1.5780   47.7910   46.3620 N   0  0  0  0  0
    1.3700   49.0360   46.9160 C   0  0  0  0  0
    1.8330   49.1560   48.1320 N   0  0  0  0  0
    2.4120   47.9060   48.3460 C   0  0  0  0  0
    3.0950   47.4530   49.4930 C   0  0  0  0  0
    3.3450   48.0360   50.5680 O   0  0  0  0  0
    3.4820   46.1180   49.2960 N   0  0  0  0  0
    3.2880   45.3430   48.1970 C   0  0  0  0  0
    3.7680   44.0880   48.2490 N   0  0  0  0  0
    2.6780   45.7900   47.1210 N   0  0  0  0  0
    2.2570   47.0640   47.2950 C   0  0  0  0  0
   -1.6384   54.0216   39.4786 H   0  0  0  0  0
   -2.6919   54.9469   41.2423 H   0  0  0  0  0
    0.3539   53.3847   41.1684 H   0  0  0  0  0
   -2.1395   54.0787   43.3289 H   0  0  0  0  0
   -1.0241   51.7839   45.9285 H   0  0  0  0  0
    1.5946   50.4331   43.3129 H   0  0  0  0  0
    0.2683   50.2647   42.1232 H   0  0  0  0  0
    1.1890   48.1923   42.0559 H   0  0  0  0  0
   -1.2661   48.0779   42.9740 H   0  0  0  0  0
   -0.9118   45.7602   42.8619 H   0  0  0  0  0
   -0.9201   47.9732   45.3706 H   0  0  0  0  0
   -0.7948   45.8429   46.0032 H   0  0  0  0  0
    1.5269   46.2865   44.9569 H   0  0  0  0  0
    0.8658   49.8457   46.3884 H   0  0  0  0  0
    4.2502   43.7607   49.0861 H   0  0  0  0  0
    2.5405   45.2479   46.2680 H   0  0  0  0  0
  1  2  1  0  0  0
  1  3  1  0  0  0
  1  4  2  0  0  0
  1  5  1  0  0  0
  5  6  1  0  0  0
  6  7  2  0  0  0
  6  8  1  0  0  0
  6  9  1  0  0  0
  9 10  1  0  0  0
 10 11  1  0  0  0
 10 12  2  0  0  0
 10 13  1  0  0  0
 13 14  1  0  0  0
 14 15  1  0  0  0
 15 16  1  0  0  0
 15 17  1  0  0  0
 16 21  1  0  0  0
 17 18  1  0  0  0
 17 19  1  0  0  0
 19 20  1  0  0  0
 19 21  1  0  0  0
 21 22  1  0  0  0
 22 23  4  0  0  0
 22 32  4  0  0  0
 23 24  4  0  0  0
 24 25  4  0  0  0
 25 26  1  0  0  0
 25 32  4  0  0  0
 26 27  2  0  0  0
 26 28  1  0  0  0
 28 29  4  0  0  0
 29 30  2  0  0  0
 29 31  1  0  0  0
 31 32  1  0  0  0
  2 33  1  0  0  0
  3 34  1  0  0  0
  5 35  1  0  0  0
  8 36  1  0  0  0
 11 37  1  0  0  0
 14 38  1  0  0  0
 14 39  1  0  0  0
 15 40  1  0  0  0
 17 41  1  0  0  0
 18 42  1  0  0  0
 19 43  1  0  0  0
 20 44  1  0  0  0
 21 45  1  0  0  0
 23 46  1  0  0  0
 30 47  1  0  0  0
 31 48  1  0  0  0
M  END
$$$$
