3bbb_ligand
  -I-interpret- 

 64 69  0  0  0  0  0  0  0  0999 V2000
  -18.7440  -22.2990   44.5820 O   0  0  0  0  0
  -18.8290  -22.5660   43.1850 C   0  0  0  0  0
  -19.1390  -21.3090   42.3880 C   0  0  0  0  0
  -19.5030  -21.6670   41.0320 O   0  0  0  0  0
  -20.2920  -20.4510   42.9170 C   0  0  0  0  0
  -19.7900  -19.2710   43.5700 O   0  0  0  0  0
  -21.1310  -20.1370   41.6730 C   0  0  0  0  0
  -20.2460  -20.5870   40.5110 C   0  0  0  0  0
  -20.9160  -21.0040   39.2690 N   0  0  0  0  0
  -20.3780  -21.8170   38.3080 C   0  0  0  0  0
  -21.1610  -22.0330   37.2770 N   0  0  0  0  0
  -22.3000  -21.3090   37.5760 C   0  0  0  0  0
  -23.5130  -21.1260   36.8790 C   0  0  0  0  0
  -23.7690  -21.6860   35.6960 N   0  0  0  0  0
  -24.4560  -20.3430   37.4420 N   0  0  0  0  0
  -24.1950  -19.7800   38.6290 C   0  0  0  0  0
  -23.0960  -19.8780   39.3800 N   0  0  0  0  0
  -22.1710  -20.6650   38.7970 C   0  0  0  0  0
  -20.3250  -18.8430   45.0240 P   0  0  0  0  0
  -20.8960  -17.4780   44.9120 O   0  0  0  0  0
  -19.2380  -19.0860   46.0090 O   0  0  0  0  0
  -21.5300  -19.8660   45.3000 O   0  0  0  0  0
  -22.8800  -19.3990   45.3830 C   0  0  0  0  0
  -23.8970  -20.5340   45.3850 C   0  0  0  0  0
  -23.8750  -21.2280   44.1070 O   0  0  0  0  0
  -23.6800  -21.6190   46.4360 C   0  0  0  0  0
  -24.9320  -22.0770   46.9420 O   0  0  0  0  0
  -22.9530  -22.7050   45.6530 C   0  0  0  0  0
  -23.6810  -22.6160   44.3160 C   0  0  0  0  0
  -22.9750  -23.1600   43.1560 N   0  0  0  0  0
  -21.6650  -23.5800   43.0770 C   0  0  0  0  0
  -21.3290  -24.0100   41.8910 N   0  0  0  0  0
  -22.4840  -23.8660   41.1340 C   0  0  0  0  0
  -22.7280  -24.1670   39.7700 C   0  0  0  0  0
  -21.9380  -24.6400   38.9420 O   0  0  0  0  0
  -24.0390  -23.8700   39.3950 N   0  0  0  0  0
  -24.9950  -23.3410   40.2350 C   0  0  0  0  0
  -26.2020  -23.1240   39.6960 N   0  0  0  0  0
  -24.7780  -23.0570   41.5160 N   0  0  0  0  0
  -23.5060  -23.3420   41.8970 C   0  0  0  0  0
  -18.5477  -23.1134   45.0509 H   0  0  0  0  0
  -19.6338  -23.2827   43.0214 H   0  0  0  0  0
  -17.8669  -22.9548   42.8513 H   0  0  0  0  0
  -18.2239  -20.7216   42.4637 H   0  0  0  0  0
  -20.8911  -20.9530   43.6768 H   0  0  0  0  0
  -21.3960  -19.0817   41.6075 H   0  0  0  0  0
  -22.0937  -20.6481   41.6827 H   0  0  0  0  0
  -19.6655  -19.7242   40.1844 H   0  0  0  0  0
  -19.3810  -22.2495   38.3921 H   0  0  0  0  0
  -23.0698  -22.2807   35.2512 H   0  0  0  0  0
  -24.6640  -21.5196   35.2360 H   0  0  0  0  0
  -24.9895  -19.1559   39.0380 H   0  0  0  0  0
  -18.9711  -20.0073   45.9685 H   0  0  0  0  0
  -23.0734  -18.7784   44.5081 H   0  0  0  0  0
  -22.9876  -18.8521   46.3197 H   0  0  0  0  0
  -24.8376  -20.0283   45.6032 H   0  0  0  0  0
  -23.1202  -21.2860   47.3100 H   0  0  0  0  0
  -24.7796  -22.7582   47.6011 H   0  0  0  0  0
  -22.9906  -23.6907   46.1169 H   0  0  0  0  0
  -21.8749  -22.5600   45.5846 H   0  0  0  0  0
  -24.5858  -23.2198   44.3860 H   0  0  0  0  0
  -20.9768  -23.5556   43.9219 H   0  0  0  0  0
  -26.3706  -23.3489   38.7155 H   0  0  0  0  0
  -25.4855  -22.6697   42.1404 H   0  0  0  0  0
  1  2  1  0  0  0
  2  3  1  0  0  0
  3  4  1  0  0  0
  3  5  1  0  0  0
  4  8  1  0  0  0
  5  6  1  0  0  0
  5  7  1  0  0  0
  6 19  1  0  0  0
  7  8  1  0  0  0
  8  9  1  0  0  0
  9 10  4  0  0  0
  9 18  4  0  0  0
 10 11  4  0  0  0
 11 12  4  0  0  0
 12 13  4  0  0  0
 12 18  4  0  0  0
 13 14  1  0  0  0
 13 15  4  0  0  0
 15 16  4  0  0  0
 16 17  4  0  0  0
 17 18  4  0  0  0
 19 20  2  0  0  0
 19 21  1  0  0  0
 19 22  1  0  0  0
 22 23  1  0  0  0
 23 24  1  0  0  0
 24 25  1  0  0  0
 24 26  1  0  0  0
 25 29  1  0  0  0
 26 27  1  0  0  0
 26 28  1  0  0  0
 28 29  1  0  0  0
 29 30  1  0  0  0
 30 31  4  0  0  0
 30 40  4  0  0  0
 31 32  4  0  0  0
 32 33  4  0  0  0
 33 34  1  0  0  0
 33 40  4  0  0  0
 34 35  2  0  0  0
 34 36  1  0  0  0
 36 37  4  0  0  0
 37 38  2  0  0  0
 37 39  1  0  0  0
 39 40  1  0  0  0
  1 41  1  0  0  0
  2 42  1  0  0  0
  2 43  1  0  0  0
  3 44  1  0  0  0
  5 45  1  0  0  0
  7 46  1  0  0  0
  7 47  1  0  0  0
  8 48  1  0  0  0
 10 49  1  0  0  0
 14 50  1  0  0  0
 14 51  1  0  0  0
 16 52  1  0  0  0
 21 53  1  0  0  0
 23 54  1  0  0  0
 23 55  1  0  0  0
 24 56  1  0  0  0
 26 57  1  0  0  0
 27 58  1  0  0  0
 28 59  1  0  0  0
 28 60  1  0  0  0
 29 61  1  0  0  0
 31 62  1  0  0  0
 38 63  1  0  0  0
 39 64  1  0  0  0
M  END
$$$$
