3bwf_ligand
  -I-interpret- 

 41 51  0  0  0  0  0  0  0  0999 V2000
   21.4310  -40.5260    0.7200 O   0  0  0  0  0
   20.6120  -39.5920    0.8160 C   0  0  0  0  0
   20.0610  -38.8480   -0.2140 C   0  0  0  0  0
   20.2310  -38.9350   -1.6280 C   0  0  0  0  0
   21.0640  -39.8200   -2.3450 C   0  0  0  0  0
   21.1200  -39.7620   -3.7560 C   0  0  0  0  0
   20.3350  -38.8340   -4.4700 C   0  0  0  0  0
   19.5040  -38.0470   -2.4090 C   0  0  0  0  0
   19.5510  -37.9580   -3.8030 N   0  0  0  0  0
   18.6490  -37.1450   -1.7840 C   0  0  0  0  0
   17.9390  -36.2710   -2.5450 N   0  0  0  0  0
   16.0570  -36.6120   -4.9800 C   0  0  0  0  0
   16.6390  -37.8660   -5.4010 C   0  0  0  0  0
   17.5770  -37.5910   -6.4560 C   0  0  0  0  0
   17.5730  -36.1750   -6.6770 C   0  0  0  0  0
   16.6410  -35.5700   -5.7680 C   0  0  0  0  0
   19.5000  -35.1790   -4.7110 C   0  0  0  0  0
   20.2600  -34.3710   -4.7880 O   0  0  0  0  0
   20.1150  -39.1530    2.0310 N   0  0  0  0  0
   19.2320  -38.1350    1.7810 C   0  0  0  0  0
   18.6390  -37.5500    2.6790 O   0  0  0  0  0
   19.1720  -37.9140    0.4020 C   0  0  0  0  0
   18.4460  -37.0060   -0.4170 C   0  0  0  0  0
   17.5270  -35.9680   -0.2910 C   0  0  0  0  0
   17.2140  -35.5450   -1.6100 C   0  0  0  0  0
   16.2820  -34.5310   -1.8350 C   0  0  0  0  0
   15.7040  -33.8940   -0.7380 C   0  0  0  0  0
   15.9880  -34.2990    0.5890 C   0  0  0  0  0
   15.3620  -33.6850    1.6440 O   0  0  0  0  0
   16.8970  -35.3650    0.8120 C   0  0  0  0  0
   18.2330  -36.5540   -4.6190 Os  0  0  0  0  0
   21.6672  -40.5520   -1.8080 H   0  0  0  0  0
   21.7772  -40.4421   -4.2979 H   0  0  0  0  0
   20.3603  -38.8229   -5.5597 H   0  0  0  0  0
   16.0921  -34.6622   -6.0184 H   0  0  0  0  0
   19.1778  -34.8004   -3.7410 H   0  0  0  0  0
   20.3621  -39.5217    2.9494 H   0  0  0  0  0
   16.0108  -34.2422   -2.8505 H   0  0  0  0  0
   15.0171  -33.0644   -0.9056 H   0  0  0  0  0
   15.6656  -34.0762    2.4664 H   0  0  0  0  0
   17.1042  -35.7118    1.8244 H   0  0  0  0  0
  2  1  2  0  0  0
  3  2  1  0  0  0
  2 19  1  0  0  0
  4  3  4  0  0  0
 22  3  4  0  0  0
  4  5  4  0  0  0
  8  4  4  0  0  0
  6  5  4  0  0  0
  7  6  4  0  0  0
  9  7  4  0  0  0
  9  8  4  0  0  0
 10  8  4  0  0  0
 11 10  4  0  0  0
 10 23  4  0  0  0
 11 25  4  0  0  0
 13 12  2  0  0  0
 16 12  1  0  0  0
 14 13  1  0  0  0
 15 14  2  0  0  0
 16 15  1  0  0  0
 17 18  2  0  0  0
 20 19  1  0  0  0
 20 21  2  0  0  0
 22 20  1  0  0  0
 23 22  4  0  0  0
 24 23  4  0  0  0
 25 24  4  0  0  0
 24 30  4  0  0  0
 25 26  4  0  0  0
 26 27  4  0  0  0
 27 28  4  0  0  0
 28 29  1  0  0  0
 30 28  4  0  0  0
 31  9  1  0  0  0
 31 11  1  0  0  0
 31 12  1  0  0  0
 31 13  1  0  0  0
 31 14  1  0  0  0
 31 15  1  0  0  0
 31 16  1  0  0  0
 31 17  1  0  0  0
  5 32  1  0  0  0
  6 33  1  0  0  0
  7 34  1  0  0  0
 16 35  1  0  0  0
 17 36  1  0  0  0
 19 37  1  0  0  0
 26 38  1  0  0  0
 27 39  1  0  0  0
 29 40  1  0  0  0
 30 41  1  0  0  0
M  END
$$$$
