3cph_ligand
  -I-interpret- 

 42 44  0  0  0  0  0  0  0  0999 V2000
   55.8240   19.1500    8.2690 P   0  0  0  0  0
   55.2450   19.7770    9.5060 O   0  0  0  0  0
   56.8460   18.0810    8.6000 O   0  0  0  0  0
   54.6370   18.5920    7.5160 O   0  0  0  0  0
   56.5280   20.3460    7.4560 O   0  0  0  0  0
   58.0270   20.2280    6.8870 P   0  0  0  0  0
   59.0590   20.2730    7.9890 O   0  0  0  0  0
   58.1490   18.9400    6.1000 O   0  0  0  0  0
   58.1970   21.5370    5.9560 O   0  0  0  0  0
   57.0570   22.2240    5.4150 C   0  0  0  0  0
   57.4010   23.3570    4.4340 C   0  0  0  0  0
   57.4280   24.6300    5.1040 O   0  0  0  0  0
   58.7550   23.1940    3.7620 C   0  0  0  0  0
   58.6830   23.6310    2.4100 O   0  0  0  0  0
   59.6710   24.0950    4.5470 C   0  0  0  0  0
   60.7310   24.6230    3.7450 O   0  0  0  0  0
   58.7450   25.1800    5.0800 C   0  0  0  0  0
   59.1590   25.5750    6.4380 N   0  0  0  0  0
   59.3490   24.7780    7.5050 C   0  0  0  0  0
   59.7410   25.5010    8.5910 N   0  0  0  0  0
   59.8070   26.7850    8.2150 C   0  0  0  0  0
   60.1520   28.0800    8.8490 C   0  0  0  0  0
   60.4900   28.1950   10.0490 O   0  0  0  0  0
   60.0810   29.1610    8.0720 N   0  0  0  0  0
   59.7180   29.1150    6.7680 C   0  0  0  0  0
   59.6680   30.2670    6.0500 N   0  0  0  0  0
   59.3930   27.9660    6.1300 N   0  0  0  0  0
   59.4240   26.8080    6.7930 C   0  0  0  0  0
   57.1908   17.7065    7.7861 H   0  0  0  0  0
   54.9406   18.1734    6.7072 H   0  0  0  0  0
   57.4872   18.9272    5.4047 H   0  0  0  0  0
   56.5305   22.6780    6.2545 H   0  0  0  0  0
   56.4748   21.4880    4.8605 H   0  0  0  0  0
   56.6174   23.3105    3.6778 H   0  0  0  0  0
   59.0953   22.1586    3.7487 H   0  0  0  0  0
   59.5417   23.5244    1.9943 H   0  0  0  0  0
   60.1903   23.5670    5.3468 H   0  0  0  0  0
   61.2875   25.1893    4.2847 H   0  0  0  0  0
   58.7810   26.0687    4.4499 H   0  0  0  0  0
   59.2080   23.6972    7.5011 H   0  0  0  0  0
   59.9025   31.1550    6.4936 H   0  0  0  0  0
   59.1253   27.9852    5.1459 H   0  0  0  0  0
  1  2  2  0  0  0
  1  3  1  0  0  0
  1  4  1  0  0  0
  1  5  1  0  0  0
  5  6  1  0  0  0
  6  7  2  0  0  0
  6  8  1  0  0  0
  6  9  1  0  0  0
  9 10  1  0  0  0
 10 11  1  0  0  0
 11 12  1  0  0  0
 11 13  1  0  0  0
 12 17  1  0  0  0
 13 14  1  0  0  0
 13 15  1  0  0  0
 15 16  1  0  0  0
 15 17  1  0  0  0
 17 18  1  0  0  0
 18 19  4  0  0  0
 18 28  4  0  0  0
 19 20  4  0  0  0
 20 21  4  0  0  0
 21 22  1  0  0  0
 21 28  4  0  0  0
 22 23  2  0  0  0
 22 24  1  0  0  0
 24 25  4  0  0  0
 25 26  2  0  0  0
 25 27  1  0  0  0
 27 28  1  0  0  0
  3 29  1  0  0  0
  4 30  1  0  0  0
  8 31  1  0  0  0
 10 32  1  0  0  0
 10 33  1  0  0  0
 11 34  1  0  0  0
 13 35  1  0  0  0
 14 36  1  0  0  0
 15 37  1  0  0  0
 16 38  1  0  0  0
 17 39  1  0  0  0
 19 40  1  0  0  0
 26 41  1  0  0  0
 27 42  1  0  0  0
M  END
$$$$
