3cpj_ligand
  -I-interpret- 

 42 44  0  0  0  0  0  0  0  0999 V2000
  -17.8080   39.4730   17.1230 P   0  0  0  0  0
  -16.4780   40.0850   16.7450 O   0  0  0  0  0
  -18.2270   38.5030   16.0320 O   0  0  0  0  0
  -17.6570   38.7640   18.4510 O   0  0  0  0  0
  -18.9250   40.6380   17.2650 O   0  0  0  0  0
  -19.0210   41.6630   18.5090 P   0  0  0  0  0
  -20.0610   41.1990   19.5010 O   0  0  0  0  0
  -17.6860   41.8550   19.1910 O   0  0  0  0  0
  -19.5190   43.0260   17.8100 O   0  0  0  0  0
  -18.6600   44.1550   17.6290 C   0  0  0  0  0
  -19.4860   45.4390   17.5500 C   0  0  0  0  0
  -20.6670   45.2320   16.7610 O   0  0  0  0  0
  -19.9320   45.9020   18.9330 C   0  0  0  0  0
  -19.5450   47.2650   19.1500 O   0  0  0  0  0
  -21.4430   45.7560   18.9300 C   0  0  0  0  0
  -22.1020   46.8340   19.6110 O   0  0  0  0  0
  -21.8170   45.7210   17.4550 C   0  0  0  0  0
  -23.0060   44.8530   17.2520 N   0  0  0  0  0
  -23.0650   43.5210   17.4480 C   0  0  0  0  0
  -24.3050   43.0400   17.1780 N   0  0  0  0  0
  -25.0730   44.0790   16.8010 C   0  0  0  0  0
  -26.4870   44.2730   16.3750 C   0  0  0  0  0
  -27.2860   43.3120   16.3020 O   0  0  0  0  0
  -26.8810   45.5180   16.0610 N   0  0  0  0  0
  -26.0490   46.5840   16.1240 C   0  0  0  0  0
  -26.5370   47.8070   15.7920 N   0  0  0  0  0
  -24.7420   46.4790   16.5070 N   0  0  0  0  0
  -24.2100   45.2760   16.8510 C   0  0  0  0  0
  -19.0713   38.1087   16.2629 H   0  0  0  0  0
  -18.4969   38.3715   18.7003 H   0  0  0  0  0
  -17.0382   42.1495   18.5466 H   0  0  0  0  0
  -18.1006   44.0328   16.7015 H   0  0  0  0  0
  -17.9758   44.2222   18.4748 H   0  0  0  0  0
  -18.8466   46.1958   17.0954 H   0  0  0  0  0
  -19.4747   45.3198   19.7330 H   0  0  0  0  0
  -19.8317   47.5427   20.0231 H   0  0  0  0  0
  -21.7586   44.8605   19.4652 H   0  0  0  0  0
  -23.0517   46.6965   19.5818 H   0  0  0  0  0
  -22.0898   46.7061   17.0766 H   0  0  0  0  0
  -22.2260   42.9095   17.7801 H   0  0  0  0  0
  -27.5102   47.9066   15.5034 H   0  0  0  0  0
  -24.1573   47.3143   16.5353 H   0  0  0  0  0
  1  2  2  0  0  0
  1  3  1  0  0  0
  1  4  1  0  0  0
  1  5  1  0  0  0
  5  6  1  0  0  0
  6  7  2  0  0  0
  6  8  1  0  0  0
  6  9  1  0  0  0
  9 10  1  0  0  0
 10 11  1  0  0  0
 11 12  1  0  0  0
 11 13  1  0  0  0
 12 17  1  0  0  0
 13 14  1  0  0  0
 13 15  1  0  0  0
 15 16  1  0  0  0
 15 17  1  0  0  0
 17 18  1  0  0  0
 18 19  4  0  0  0
 18 28  4  0  0  0
 19 20  4  0  0  0
 20 21  4  0  0  0
 21 22  1  0  0  0
 21 28  4  0  0  0
 22 23  2  0  0  0
 22 24  1  0  0  0
 24 25  4  0  0  0
 25 26  2  0  0  0
 25 27  1  0  0  0
 27 28  1  0  0  0
  3 29  1  0  0  0
  4 30  1  0  0  0
  8 31  1  0  0  0
 10 32  1  0  0  0
 10 33  1  0  0  0
 11 34  1  0  0  0
 13 35  1  0  0  0
 14 36  1  0  0  0
 15 37  1  0  0  0
 16 38  1  0  0  0
 17 39  1  0  0  0
 19 40  1  0  0  0
 26 41  1  0  0  0
 27 42  1  0  0  0
M  END
$$$$
