3cst_ligand
  -I-interpret- 

 63 72  0  0  0  0  0  0  0  0999 V2000
   51.5100   15.8340   28.9800 C   0  0  0  0  0
   51.9870   16.9940   29.7810 C   0  0  0  0  0
   51.1800   17.6720   30.7470 C   0  0  0  0  0
   49.9100   17.1560   30.9530 C   0  0  0  0  0
   49.3970   16.0620   30.1590 C   0  0  0  0  0
   50.1920   15.3250   29.1580 C   0  0  0  0  0
   45.0130   12.1200   28.7510 C   0  0  0  0  0
   47.8580   16.6760   31.5240 C   0  0  0  0  0
   48.0650   15.7310   30.5160 C   0  0  0  0  0
   46.7260   16.8530   32.2180 C   0  0  0  0  0
   45.5850   15.8990   31.9220 C   0  0  0  0  0
   45.7520   14.9080   30.9310 C   0  0  0  0  0
   46.9240   14.8170   30.2590 C   0  0  0  0  0
   46.8490   13.6600   29.2510 C   0  0  0  0  0
   45.5690   18.0590   33.8550 C   0  0  0  0  0
   44.4260   17.1650   33.6180 C   0  0  0  0  0
   44.4270   16.1160   32.7000 C   0  0  0  0  0
   44.8230   13.8720   30.4090 C   0  0  0  0  0
   43.4160   17.3420   34.2620 F   0  0  0  0  0
   46.6760   17.9010   33.1880 N   0  0  0  0  0
   48.8840   17.5450   31.7450 N   0  0  0  0  0
   45.5990   13.2390   29.4840 N   0  0  0  0  0
   52.3260   15.2240   28.0070 O   0  0  0  0  0
   43.7060   13.6280   30.7000 O   0  0  0  0  0
   47.5390   13.1400   28.4420 O   0  0  0  0  0
   48.1560   20.2720   31.8820 C   0  0  0  0  0
   47.8180   21.1220   31.1800 O   0  0  0  0  0
   49.4140   20.1790   34.3980 C   0  0  0  0  0
   48.2580   19.8120   35.0210 C   0  0  0  0  0
   48.2470   18.3720   35.1830 C   0  0  0  0  0
   49.4700   17.8650   34.6210 C   0  0  0  0  0
   50.1900   18.9190   34.1420 C   0  0  0  0  0
   47.1750   20.7120   35.4750 C   0  0  0  0  0
   46.5740   23.1620   35.6260 C   0  0  0  0  0
   47.1880   23.7910   36.8910 C   0  0  0  0  0
   45.1010   22.8240   35.8980 C   0  0  0  0  0
   46.6540   24.1550   34.4570 C   0  0  0  0  0
   47.4320   22.0310   35.2340 N   0  0  0  0  0
   46.1600   20.2990   36.0050 O   0  0  0  0  0
   44.5890   22.0010   34.8700 O   0  0  0  0  0
   48.0080   24.3460   34.0920 O   0  0  0  0  0
   48.3850   18.8710   33.2100 Ru  0  0  0  0  0
   53.0065   17.3456   29.6227 H   0  0  0  0  0
   51.5426   18.5446   31.2903 H   0  0  0  0  0
   49.8056   14.4688   28.6051 H   0  0  0  0  0
   44.9992   12.3522   27.6861 H   0  0  0  0  0
   45.6095   11.2237   28.9210 H   0  0  0  0  0
   43.9944   11.9518   29.1007 H   0  0  0  0  0
   45.4893   18.8577   34.5925 H   0  0  0  0  0
   43.5518   15.4765   32.5852 H   0  0  0  0  0
   51.8477   14.4984   27.5991 H   0  0  0  0  0
   49.1558   20.1781   31.4581 H   0  0  0  0  0
   51.2792   18.8952   34.1064 H   0  0  0  0  0
   46.6430   24.7003   37.1443 H   0  0  0  0  0
   47.1198   23.0830   37.7170 H   0  0  0  0  0
   48.2341   24.0331   36.7037 H   0  0  0  0  0
   44.5245   23.7484   35.9342 H   0  0  0  0  0
   45.0269   22.2946   36.8479 H   0  0  0  0  0
   46.2214   25.1085   34.7600 H   0  0  0  0  0
   46.1005   23.7591   33.6055 H   0  0  0  0  0
   48.2953   22.2530   34.7382 H   0  0  0  0  0
   43.6687   21.7979   35.0527 H   0  0  0  0  0
   48.0568   24.9668   33.3613 H   0  0  0  0  0
  2  1  4  0  0  0
  6  1  4  0  0  0
  1 23  1  0  0  0
  3  2  4  0  0  0
  4  3  4  0  0  0
  4  5  4  0  0  0
 21  4  4  0  0  0
  5  6  4  0  0  0
  9  5  4  0  0  0
 22  7  1  0  0  0
  8  9  4  0  0  0
  8 10  4  0  0  0
 21  8  4  0  0  0
  9 13  4  0  0  0
 10 11  4  0  0  0
 20 10  4  0  0  0
 11 12  4  0  0  0
 11 17  4  0  0  0
 13 12  4  0  0  0
 12 18  1  0  0  0
 13 14  1  0  0  0
 14 22  1  0  0  0
 14 25  2  0  0  0
 15 16  4  0  0  0
 20 15  4  0  0  0
 16 17  4  0  0  0
 16 19  1  0  0  0
 18 22  1  0  0  0
 18 24  2  0  0  0
 26 27  2  0  0  0
 28 29  2  0  0  0
 28 32  1  0  0  0
 29 30  1  0  0  0
 29 33  1  0  0  0
 31 30  2  0  0  0
 32 31  1  0  0  0
 33 38  1  0  0  0
 33 39  2  0  0  0
 34 35  1  0  0  0
 34 36  1  0  0  0
 34 37  1  0  0  0
 38 34  1  0  0  0
 36 40  1  0  0  0
 37 41  1  0  0  0
 42 20  1  0  0  0
 42 21  1  0  0  0
 42 26  1  0  0  0
 42 28  1  0  0  0
 42 30  1  0  0  0
 42 31  1  0  0  0
 42 32  1  0  0  0
  2 43  1  0  0  0
  3 44  1  0  0  0
  6 45  1  0  0  0
  7 46  1  0  0  0
  7 47  1  0  0  0
  7 48  1  0  0  0
 15 49  1  0  0  0
 17 50  1  0  0  0
 23 51  1  0  0  0
 26 52  1  0  0  0
 32 53  1  0  0  0
 35 54  1  0  0  0
 35 55  1  0  0  0
 35 56  1  0  0  0
 36 57  1  0  0  0
 36 58  1  0  0  0
 37 59  1  0  0  0
 37 60  1  0  0  0
 38 61  1  0  0  0
 40 62  1  0  0  0
 41 63  1  0  0  0
M  END
$$$$
