3d45_ligand
  -I-interpret- 

 39 41  0  0  0  0  0  0  0  0999 V2000
    7.0270   14.5830   25.2190 P   0  0  0  0  0
    6.2560   14.9550   26.4420 O   0  0  0  0  0
    8.4710   14.8740   25.0230 O   0  0  0  0  0
    6.9250   13.0230   25.0030 O   0  0  0  0  0
    7.9510   12.3640   25.6340 C   0  0  0  0  0
    7.6340   10.9090   25.8700 C   0  0  0  0  0
    8.1510   10.5860   27.1760 O   0  0  0  0  0
    6.1820   10.4640   25.8250 C   0  0  0  0  0
    6.2020    9.2260   25.1800 O   0  0  0  0  0
    5.7910   10.2050   27.2600 C   0  0  0  0  0
    5.3510    8.8780   27.4580 O   0  0  0  0  0
    7.0850   10.3180   28.0410 C   0  0  0  0  0
    6.9290   11.3250   29.0590 N   0  3  0  0  0
    6.7770   12.6840   28.9250 C   0  0  0  0  0
    6.6200   13.2470   30.0910 N   0  0  0  0  0
    6.6700   12.2040   30.9950 C   0  0  0  0  0
    6.5490   12.2270   32.3840 C   0  0  0  0  0
    6.3840   13.2160   33.1080 O   0  0  0  0  0
    6.6590   10.9510   32.9290 N   0  0  0  0  0
    6.8520    9.7770   32.2400 C   0  0  0  0  0
    6.9290    8.6550   32.9950 N   0  0  0  0  0
    6.9500    9.7590   30.9100 N   0  0  0  0  0
    6.8510   11.0080   30.3790 C   0  0  0  0  0
    6.5070   14.6710   30.4290 C   0  0  0  0  0
    5.3453   14.6673   26.3446 H   0  0  0  0  0
    8.1128   12.8371   26.6025 H   0  0  0  0  0
    8.8329   12.4196   24.9958 H   0  0  0  0  0
    8.0863   10.3850   25.0280 H   0  0  0  0  0
    5.5174   11.1794   25.3407 H   0  0  0  0  0
    6.4477    9.3496   24.2602 H   0  0  0  0  0
    4.9972   10.8924   27.5523 H   0  0  0  0  0
    5.1129    8.7552   28.3799 H   0  0  0  0  0
    7.3162    9.3742   28.5348 H   0  0  0  0  0
    6.7863   13.2181   27.9749 H   0  0  0  0  0
    6.8445    8.7163   34.0096 H   0  0  0  0  0
    7.0830    8.9118   30.3578 H   0  0  0  0  0
    7.4106   15.1913   30.1114 H   0  0  0  0  0
    5.6428   15.0967   29.9190 H   0  0  0  0  0
    6.3840   14.7787   31.5067 H   0  0  0  0  0
  1  2  1  0  0  0
  1  3  2  0  0  0
  1  4  1  0  0  0
  4  5  1  0  0  0
  5  6  1  0  0  0
  6  7  1  0  0  0
  6  8  1  0  0  0
  7 12  1  0  0  0
  8  9  1  0  0  0
  8 10  1  0  0  0
 10 11  1  0  0  0
 10 12  1  0  0  0
 12 13  1  0  0  0
 13 14  4  0  0  0
 13 23  4  0  0  0
 14 15  4  0  0  0
 15 16  4  0  0  0
 15 24  1  0  0  0
 16 17  1  0  0  0
 16 23  4  0  0  0
 17 18  2  0  0  0
 17 19  1  0  0  0
 19 20  4  0  0  0
 20 21  2  0  0  0
 20 22  1  0  0  0
 22 23  1  0  0  0
  2 25  1  0  0  0
  5 26  1  0  0  0
  5 27  1  0  0  0
  6 28  1  0  0  0
  8 29  1  0  0  0
  9 30  1  0  0  0
 10 31  1  0  0  0
 11 32  1  0  0  0
 12 33  1  0  0  0
 14 34  1  0  0  0
 21 35  1  0  0  0
 22 36  1  0  0  0
 24 37  1  0  0  0
 24 38  1  0  0  0
 24 39  1  0  0  0
M  END
$$$$
