3dla_ligand
  -I-interpret- 

 71 75  0  0  0  0  0  0  0  0999 V2000
  155.1570   75.7270   65.9380 O   0  0  0  0  0
  154.2690   76.5890   66.1940 C   0  0  0  0  0
  153.0570   76.3970   65.9080 O   0  0  0  0  0
  154.6510   77.9050   66.8420 C   0  0  0  0  0
  155.1100   78.9430   66.0330 C   0  0  0  0  0
  155.4550   80.1580   66.5980 C   0  0  0  0  0
  155.3290   80.3000   67.9750 C   0  0  0  0  0
  154.5530   78.1120   68.2280 C   0  0  0  0  0
  154.8870   79.2980   68.7740 N   0  0  0  0  0
  154.7810   79.4980   70.2430 C   0  0  0  0  0
  156.1030   80.0370   70.7750 C   0  0  0  0  0
  156.3180   79.5910   72.1200 O   0  0  0  0  0
  155.8900   81.5390   70.7010 C   0  0  0  0  0
  156.7520   82.2630   71.5770 O   0  0  0  0  0
  153.7860   80.4820   70.6090 O   0  0  0  0  0
  154.4140   81.6970   71.0380 C   0  0  0  0  0
  153.8260   82.9150   70.3420 C   0  0  0  0  0
  154.1210   84.0340   71.1780 O   0  0  0  0  0
  153.1550   85.3070   71.3650 P   0  0  0  0  0
  151.7420   84.8390   71.1050 O   0  0  0  0  0
  153.4270   85.9090   72.7260 O   0  0  0  0  0
  153.7630   86.3050   70.2170 O   0  0  0  0  0
  153.1940   86.8670   68.7910 P   0  0  0  0  0
  154.2520   87.6980   68.1090 O   0  0  0  0  0
  152.6100   85.7670   67.9600 O   0  0  0  0  0
  152.0280   87.8750   69.2520 O   0  0  0  0  0
  152.2670   88.8270   70.2740 C   0  0  0  0  0
  152.5180   90.1540   69.5670 C   0  0  0  0  0
  153.1890   91.1710   70.4790 C   0  0  0  0  0
  153.8210   92.1490   69.6340 O   0  0  0  0  0
  152.0270   91.7910   71.2230 C   0  0  0  0  0
  152.3600   93.1150   71.6440 O   0  0  0  0  0
  150.9560   91.8150   70.1310 C   0  0  0  0  0
  151.2830   90.7640   69.1880 O   0  0  0  0  0
  149.5370   91.6980   70.5950 N   0  0  0  0  0
  149.0320   90.9910   71.6320 C   0  0  0  0  0
  147.6870   91.1540   71.6560 N   0  0  0  0  0
  147.3560   91.9810   70.6160 C   0  0  0  0  0
  148.5320   92.3080   69.9500 C   0  0  0  0  0
  146.1590   92.5210   70.1130 C   0  0  0  0  0
  144.9670   92.2370   70.7020 N   0  0  0  0  0
  146.1940   93.3290   69.0100 N   0  0  0  0  0
  147.3460   93.6240   68.3830 C   0  0  0  0  0
  148.5010   93.1220   68.8490 N   0  0  0  0  0
  156.0117   76.0537   66.2285 H   0  0  0  0  0
  155.1971   78.7978   64.9562 H   0  0  0  0  0
  155.8155   80.9808   65.9806 H   0  0  0  0  0
  155.5959   81.2539   68.4299 H   0  0  0  0  0
  154.2026   77.3035   68.8696 H   0  0  0  0  0
  154.5101   78.5278   70.6595 H   0  0  0  0  0
  156.9815   79.7053   70.2215 H   0  0  0  0  0
  157.1535   79.9380   72.4413 H   0  0  0  0  0
  156.1385   81.9557   69.7249 H   0  0  0  0  0
  156.5771   83.2030   71.4914 H   0  0  0  0  0
  154.2560   81.8612   72.1039 H   0  0  0  0  0
  152.7511   82.8045   70.1989 H   0  0  0  0  0
  154.2543   83.0439   69.3480 H   0  0  0  0  0
  154.3493   86.1696   72.7808 H   0  0  0  0  0
  154.5661   88.3737   68.7143 H   0  0  0  0  0
  153.1214   88.5400   70.8870 H   0  0  0  0  0
  151.4170   88.8974   70.9527 H   0  0  0  0  0
  153.1489   89.9130   68.7114 H   0  0  0  0  0
  153.9386   90.7606   71.1555 H   0  0  0  0  0
  154.2558   92.8085   70.1796 H   0  0  0  0  0
  151.7279   91.2620   72.1279 H   0  0  0  0  0
  151.6153   93.4969   72.1143 H   0  0  0  0  0
  150.9824   92.8066   69.6792 H   0  0  0  0  0
  149.6114   90.3896   72.3325 H   0  0  0  0  0
  144.9341   91.6261   71.5181 H   0  0  0  0  0
  144.1056   92.6349   70.3277 H   0  0  0  0  0
  147.3425   94.2663   67.5024 H   0  0  0  0  0
  1  2  1  0  0  0
  2  3  2  0  0  0
  2  4  1  0  0  0
  4  5  4  0  0  0
  4  8  4  0  0  0
  5  6  4  0  0  0
  6  7  4  0  0  0
  7  9  4  0  0  0
  8  9  4  0  0  0
  9 10  1  0  0  0
 10 11  1  0  0  0
 10 15  1  0  0  0
 11 12  1  0  0  0
 11 13  1  0  0  0
 13 14  1  0  0  0
 13 16  1  0  0  0
 15 16  1  0  0  0
 16 17  1  0  0  0
 17 18  1  0  0  0
 18 19  1  0  0  0
 19 20  2  0  0  0
 19 21  1  0  0  0
 19 22  1  0  0  0
 22 23  1  0  0  0
 23 24  1  0  0  0
 23 25  2  0  0  0
 23 26  1  0  0  0
 26 27  1  0  0  0
 27 28  1  0  0  0
 28 29  1  0  0  0
 28 34  1  0  0  0
 29 30  1  0  0  0
 29 31  1  0  0  0
 31 32  1  0  0  0
 31 33  1  0  0  0
 33 34  1  0  0  0
 33 35  1  0  0  0
 35 36  4  0  0  0
 35 39  4  0  0  0
 36 37  4  0  0  0
 37 38  4  0  0  0
 38 39  4  0  0  0
 38 40  4  0  0  0
 39 44  4  0  0  0
 40 41  1  0  0  0
 40 42  4  0  0  0
 42 43  4  0  0  0
 43 44  4  0  0  0
  1 45  1  0  0  0
  5 46  1  0  0  0
  6 47  1  0  0  0
  7 48  1  0  0  0
  8 49  1  0  0  0
 10 50  1  0  0  0
 11 51  1  0  0  0
 12 52  1  0  0  0
 13 53  1  0  0  0
 14 54  1  0  0  0
 16 55  1  0  0  0
 17 56  1  0  0  0
 17 57  1  0  0  0
 21 58  1  0  0  0
 24 59  1  0  0  0
 27 60  1  0  0  0
 27 61  1  0  0  0
 28 62  1  0  0  0
 29 63  1  0  0  0
 30 64  1  0  0  0
 31 65  1  0  0  0
 32 66  1  0  0  0
 33 67  1  0  0  0
 36 68  1  0  0  0
 41 69  1  0  0  0
 41 70  1  0  0  0
 43 71  1  0  0  0
M  END
$$$$
