3dpc_ligand
  -I-interpret- 

160162  0  0  0  0  0  0  0  0999 V2000
   15.6630   16.9420  -14.9720 N   0  3  0  0  0
   15.5770   17.9510  -16.0200 C   0  0  0  0  0
   14.5030   18.9860  -15.7030 C   0  0  0  0  0
   14.5410   20.1080  -16.2070 O   0  0  0  0  0
   15.2910   17.2950  -17.3730 C   0  0  0  0  0
   16.4760   16.6020  -17.9700 C   0  0  0  0  0
   16.3960   15.8530  -19.1250 N   0  0  0  0  0
   17.7690   16.5440  -17.5730 C   0  0  0  0  0
   17.5890   15.3640  -19.4130 C   0  0  0  0  0
   18.4400   15.7680  -18.4870 N   0  0  0  0  0
   13.5480   18.6010  -14.8630 N   0  0  0  0  0
   13.2000   19.3880  -13.6860 C   0  0  0  0  0
   13.3520   18.5680  -12.4090 C   0  0  0  0  0
   12.7700   17.4910  -12.2790 O   0  0  0  0  0
   11.7820   19.9260  -13.8080 C   0  0  0  0  0
   14.1370   19.0850  -11.4700 N   0  0  0  0  0
   14.1040   18.6040  -10.0940 C   0  0  0  0  0
   14.5250   17.1260  -10.0020 C   0  0  0  0  0
   15.9510   17.0060  -10.0180 C   0  0  0  0  0
   13.9810   16.4960   -8.7280 O   0  0  0  0  0
   12.7660   15.6680   -8.4300 P   0  0  0  0  0
   12.6360   15.0120   -7.1080 O   0  0  0  0  0
   11.4620   16.5760   -8.6840 O   0  0  0  0  0
   12.6570   14.5370   -9.5680 O   0  0  0  0  0
   15.0110   19.4380   -9.1960 C   0  0  0  0  0
   15.9230   18.9120   -8.5580 O   0  0  0  0  0
   14.7550   20.7420   -9.1520 N   0  0  0  0  0
   14.3010   21.4790  -10.3350 C   0  0  0  0  0
   15.4480   21.7630  -11.2990 C   0  0  0  0  0
   16.5990   21.8680  -10.8740 O   0  0  0  0  0
   13.7740   22.7880   -9.7450 C   0  0  0  0  0
   14.5560   22.9710   -8.4930 C   0  0  0  0  0
   14.7870   21.5910   -7.9480 C   0  0  0  0  0
   15.1310   21.8850  -12.5840 N   0  0  0  0  0
   16.1520   22.1070  -13.6120 C   0  0  0  0  0
   17.0090   23.3300  -13.3050 C   0  0  0  0  0
   16.7100   24.0730  -12.3700 O   0  0  0  0  0
   15.3240   22.3480  -14.8750 C   0  0  0  0  0
   14.0420   22.9120  -14.3740 C   0  0  0  0  0
   13.7800   22.2340  -13.0590 C   0  0  0  0  0
   18.0620   23.5330  -14.0900 N   0  0  0  0  0
   18.4200   24.8650  -14.5630 C   0  0  0  0  0
   18.0780   25.0360  -16.0390 C   0  0  0  0  0
   17.9820   24.0590  -16.7810 O   0  0  0  0  0
   19.9090   25.1330  -14.3340 C   0  0  0  0  0
   20.7660   23.8790  -14.2940 C   0  0  0  0  0
   21.2680   23.5080  -15.6800 C   0  0  0  0  0
   21.6540   22.0400  -15.7530 C   0  0  0  0  0
   22.6570   21.7830  -16.8230 N   0  3  0  0  0
   17.8960   26.2840  -16.4590 N   0  0  0  0  0
   16.9770   26.6000  -17.5460 C   0  0  0  0  0
   15.5640   26.1190  -17.2320 C   0  0  0  0  0
   15.0230   26.4080  -16.1650 O   0  0  0  0  0
   17.4650   25.9800  -18.8570 C   0  0  0  0  0
   18.1370   26.9660  -19.7980 C   0  0  0  0  0
   19.2130   27.7670  -19.0830 C   0  0  0  0  0
   18.7520   29.1890  -18.8090 C   0  0  0  0  0
   19.8260   30.1830  -19.0830 N   0  3  0  0  0
   14.9730   25.3850  -18.1690 N   0  0  0  0  0
   13.5310   25.1700  -18.1770 C   0  0  0  0  0
   12.7760   26.4890  -18.0540 C   0  0  0  0  0
   12.1440   26.7610  -17.0340 O   0  0  0  0  0
   13.1240   24.2240  -17.0450 C   0  0  0  0  0
   11.6980   24.4200  -16.5550 C   0  0  0  0  0
   11.6260   24.6930  -15.0660 C   0  0  0  0  0
   11.3520   23.7460  -14.2980 O   0  0  0  0  0
   11.8430   25.8550  -14.6620 O   0  0  0  0  0
   12.8470   27.3050  -19.1010 N   0  0  0  0  0
   12.8360   28.7550  -18.9450 C   0  0  0  0  0
   12.2900   29.4390  -20.1930 C   0  0  0  0  0
   12.0560   28.7940  -21.2150 O   0  0  0  0  0
   14.2330   29.2640  -18.6260 C   0  0  0  0  0
   12.0890   30.7500  -20.1030 N   0  0  0  0  0
   12.6490   31.6800  -21.0770 C   0  0  0  0  0
   13.8410   31.0660  -21.8040 C   0  0  0  0  0
   14.4550   31.7040  -22.6590 O   0  0  0  0  0
   13.0640   32.9850  -20.3950 C   0  0  0  0  0
   14.5230   33.3250  -20.6270 C   0  0  0  0  0
   15.3950   32.5830  -20.1260 O   0  0  0  0  0
   14.7990   34.3330  -21.3100 O   0  0  0  0  0
   14.2210   29.9190  -21.4950 O   0  0  0  0  0
   15.8537   17.3965  -14.0790 H   0  0  0  0  0
   14.7791   16.4360  -14.9155 H   0  0  0  0  0
   16.4161   16.2898  -15.1906 H   0  0  0  0  0
   16.5385   18.4619  -16.0697 H   0  0  0  0  0
   14.9955   18.0861  -18.0621 H   0  0  0  0  0
   14.5200   16.5413  -17.2127 H   0  0  0  0  0
   18.1976   17.0233  -16.6928 H   0  0  0  0  0
   17.8301   14.7341  -20.2693 H   0  0  0  0  0
   13.0455   17.7325  -15.0464 H   0  0  0  0  0
   13.8902   20.2296  -13.6277 H   0  0  0  0  0
   11.7096   20.5584  -14.6928 H   0  0  0  0  0
   11.0850   19.0927  -13.8974 H   0  0  0  0  0
   11.5391   20.5109  -12.9209 H   0  0  0  0  0
   14.7792   19.8377  -11.7181 H   0  0  0  0  0
   13.0733   18.7002   -9.7527 H   0  0  0  0  0
   14.1128   16.6048  -10.8660 H   0  0  0  0  0
   16.3394   17.4272  -10.9453 H   0  0  0  0  0
   16.3694   17.5463   -9.1688 H   0  0  0  0  0
   16.2265   15.9535   -9.9521 H   0  0  0  0  0
   11.5349   17.0067   -9.5388 H   0  0  0  0  0
   12.7394   14.9457  -10.4327 H   0  0  0  0  0
   13.5621   20.9235  -10.9125 H   0  0  0  0  0
   12.7013   22.7491   -9.5557 H   0  0  0  0  0
   13.8981   23.6256  -10.4313 H   0  0  0  0  0
   14.0189   23.5944   -7.7781 H   0  0  0  0  0
   15.4985   23.4835   -8.6860 H   0  0  0  0  0
   15.7257   21.5076   -7.4003 H   0  0  0  0  0
   14.0397   21.3007   -7.2095 H   0  0  0  0  0
   16.8493   21.2730  -13.6913 H   0  0  0  0  0
   15.1731   21.4324  -15.4469 H   0  0  0  0  0
   15.8242   23.0220  -15.5704 H   0  0  0  0  0
   13.2297   22.7354  -15.0790 H   0  0  0  0  0
   14.1050   23.9937  -14.2558 H   0  0  0  0  0
   13.2397   22.8706  -12.3583 H   0  0  0  0  0
   13.1312   21.3636  -13.1569 H   0  0  0  0  0
   18.6346   22.7363  -14.3689 H   0  0  0  0  0
   17.8383   25.5887  -13.9921 H   0  0  0  0  0
   20.0036   25.6193  -13.3631 H   0  0  0  0  0
   20.2603   25.7372  -15.1705 H   0  0  0  0  0
   20.1601   23.0569  -13.9131 H   0  0  0  0  0
   21.6267   24.0675  -13.6524 H   0  0  0  0  0
   22.1491   24.1099  -15.9024 H   0  0  0  0  0
   20.4700   23.6930  -16.3990 H   0  0  0  0  0
   20.7580   21.4615  -15.9780 H   0  0  0  0  0
   22.0926   21.7537  -14.7971 H   0  0  0  0  0
   22.8885   20.7897  -16.8389 H   0  0  0  0  0
   22.2678   22.0571  -17.7251 H   0  0  0  0  0
   23.4994   22.3267  -16.6354 H   0  0  0  0  0
   18.4125   27.0399  -16.0093 H   0  0  0  0  0
   16.9506   27.6842  -17.6554 H   0  0  0  0  0
   16.5891   25.5874  -19.3735 H   0  0  0  0  0
   18.2065   25.2237  -18.5995 H   0  0  0  0  0
   17.3821   27.6569  -20.1732 H   0  0  0  0  0
   18.6024   26.4079  -20.6105 H   0  0  0  0  0
   20.0974   27.8053  -19.7190 H   0  0  0  0  0
   19.4308   27.2832  -18.1308 H   0  0  0  0  0
   18.4782   29.2628  -17.7565 H   0  0  0  0  0
   17.9088   29.4073  -19.4644 H   0  0  0  0  0
   19.4772   31.1213  -18.8873 H   0  0  0  0  0
   20.6297   29.9865  -18.4865 H   0  0  0  0  0
   20.1043   30.1198  -20.0623 H   0  0  0  0  0
   15.5427   24.9612  -18.9013 H   0  0  0  0  0
   13.2676   24.7142  -19.1315 H   0  0  0  0  0
   13.7853   24.4260  -16.2024 H   0  0  0  0  0
   13.1951   23.2077  -17.4326 H   0  0  0  0  0
   11.1454   23.5020  -16.7549 H   0  0  0  0  0
   11.2802   25.2822  -17.0748 H   0  0  0  0  0
   11.2234   22.9455  -14.8121 H   0  0  0  0  0
   12.9108   26.9066  -20.0378 H   0  0  0  0  0
   12.1759   29.0000  -18.1130 H   0  0  0  0  0
   14.5811   28.8090  -17.6987 H   0  0  0  0  0
   14.9093   28.9987  -19.4386 H   0  0  0  0  0
   14.2064   30.3478  -18.5129 H   0  0  0  0  0
   11.5286   31.1150  -19.3328 H   0  0  0  0  0
   11.8754   31.8965  -21.8137 H   0  0  0  0  0
   12.9137   32.8655  -19.3220 H   0  0  0  0  0
   12.4609   33.7898  -20.8152 H   0  0  0  0  0
   14.9688   31.8710  -19.6432 H   0  0  0  0  0
   13.6398   29.5616  -20.8197 H   0  0  0  0  0
  1  2  1  0  0  0
  2  3  1  0  0  0
  2  5  1  0  0  0
  3  4  2  0  0  0
  3 11  1  0  0  0
  5  6  1  0  0  0
  6  7  4  0  0  0
  6  8  4  0  0  0
  7  9  4  0  0  0
  8 10  4  0  0  0
  9 10  4  0  0  0
 11 12  1  0  0  0
 12 13  1  0  0  0
 12 15  1  0  0  0
 13 14  2  0  0  0
 13 16  1  0  0  0
 16 17  1  0  0  0
 17 18  1  0  0  0
 17 25  1  0  0  0
 18 19  1  0  0  0
 18 20  1  0  0  0
 20 21  1  0  0  0
 21 22  2  0  0  0
 21 23  1  0  0  0
 21 24  1  0  0  0
 25 26  2  0  0  0
 25 27  1  0  0  0
 27 28  1  0  0  0
 27 33  1  0  0  0
 28 29  1  0  0  0
 28 31  1  0  0  0
 29 30  2  0  0  0
 29 34  1  0  0  0
 31 32  1  0  0  0
 32 33  1  0  0  0
 34 35  1  0  0  0
 34 40  1  0  0  0
 35 36  1  0  0  0
 35 38  1  0  0  0
 36 37  2  0  0  0
 36 41  1  0  0  0
 38 39  1  0  0  0
 39 40  1  0  0  0
 41 42  1  0  0  0
 42 43  1  0  0  0
 42 45  1  0  0  0
 43 44  2  0  0  0
 43 50  1  0  0  0
 45 46  1  0  0  0
 46 47  1  0  0  0
 47 48  1  0  0  0
 48 49  1  0  0  0
 50 51  1  0  0  0
 51 52  1  0  0  0
 51 54  1  0  0  0
 52 53  2  0  0  0
 52 59  1  0  0  0
 54 55  1  0  0  0
 55 56  1  0  0  0
 56 57  1  0  0  0
 57 58  1  0  0  0
 59 60  1  0  0  0
 60 61  1  0  0  0
 60 63  1  0  0  0
 61 62  2  0  0  0
 61 68  1  0  0  0
 63 64  1  0  0  0
 64 65  1  0  0  0
 65 66  1  0  0  0
 65 67  2  0  0  0
 68 69  1  0  0  0
 69 70  1  0  0  0
 69 72  1  0  0  0
 70 71  2  0  0  0
 70 73  1  0  0  0
 73 74  1  0  0  0
 74 75  1  0  0  0
 74 77  1  0  0  0
 75 76  2  0  0  0
 75 81  1  0  0  0
 77 78  1  0  0  0
 78 79  1  0  0  0
 78 80  2  0  0  0
  1 82  1  0  0  0
  1 83  1  0  0  0
  1 84  1  0  0  0
  2 85  1  0  0  0
  5 86  1  0  0  0
  5 87  1  0  0  0
  8 88  1  0  0  0
  9 89  1  0  0  0
 11 90  1  0  0  0
 12 91  1  0  0  0
 15 92  1  0  0  0
 15 93  1  0  0  0
 15 94  1  0  0  0
 16 95  1  0  0  0
 17 96  1  0  0  0
 18 97  1  0  0  0
 19 98  1  0  0  0
 19 99  1  0  0  0
 19100  1  0  0  0
 23101  1  0  0  0
 24102  1  0  0  0
 28103  1  0  0  0
 31104  1  0  0  0
 31105  1  0  0  0
 32106  1  0  0  0
 32107  1  0  0  0
 33108  1  0  0  0
 33109  1  0  0  0
 35110  1  0  0  0
 38111  1  0  0  0
 38112  1  0  0  0
 39113  1  0  0  0
 39114  1  0  0  0
 40115  1  0  0  0
 40116  1  0  0  0
 41117  1  0  0  0
 42118  1  0  0  0
 45119  1  0  0  0
 45120  1  0  0  0
 46121  1  0  0  0
 46122  1  0  0  0
 47123  1  0  0  0
 47124  1  0  0  0
 48125  1  0  0  0
 48126  1  0  0  0
 49127  1  0  0  0
 49128  1  0  0  0
 49129  1  0  0  0
 50130  1  0  0  0
 51131  1  0  0  0
 54132  1  0  0  0
 54133  1  0  0  0
 55134  1  0  0  0
 55135  1  0  0  0
 56136  1  0  0  0
 56137  1  0  0  0
 57138  1  0  0  0
 57139  1  0  0  0
 58140  1  0  0  0
 58141  1  0  0  0
 58142  1  0  0  0
 59143  1  0  0  0
 60144  1  0  0  0
 63145  1  0  0  0
 63146  1  0  0  0
 64147  1  0  0  0
 64148  1  0  0  0
 66149  1  0  0  0
 68150  1  0  0  0
 69151  1  0  0  0
 72152  1  0  0  0
 72153  1  0  0  0
 72154  1  0  0  0
 73155  1  0  0  0
 74156  1  0  0  0
 77157  1  0  0  0
 77158  1  0  0  0
 79159  1  0  0  0
 81160  1  0  0  0
M  END
$$$$
