3egt_ligand
  -I-interpret- 

 50 50  0  0  0  0  0  0  0  0999 V2000
   25.4670  -12.5960    7.8980 O   0  0  0  0  0
   26.3160  -14.1170    8.0630 P   0  0  0  0  0
   25.1690  -15.4530    8.0760 O   0  0  0  0  0
   27.7550  -14.2610    7.0480 O   0  0  0  0  0
   26.9900  -14.0850    9.7600 C   0  0  0  0  0
   25.6350  -13.9070   10.9570 P   0  0  0  0  0
   24.5940  -12.5470   10.4450 O   0  0  0  0  0
   26.1780  -13.7010   12.6220 O   0  0  0  0  0
   24.6330  -15.3480   11.0350 O   0  0  0  0  0
   27.7060  -15.4150    9.9140 C   0  0  0  0  0
   28.3270  -15.6480   11.2230 N   0  0  0  0  0
   28.2790  -16.9100   11.6540 C   0  0  0  0  0
   28.8300  -17.2830   12.8670 C   0  0  0  0  0
   29.4760  -16.3190   13.6510 C   0  0  0  0  0
   29.5330  -15.0090   13.1850 C   0  0  0  0  0
   28.9540  -14.7030   11.9440 C   0  0  0  0  0
   28.7260  -18.5970   13.2270 O   0  0  0  0  0
   29.3090  -19.0570   14.4480 C   0  0  0  0  0
   28.9900  -20.5180   14.6930 C   0  0  0  0  0
   29.8090  -20.9360   15.9300 C   0  0  0  0  0
   29.3340  -22.2570   16.5040 C   0  0  0  0  0
   29.1570  -23.3240   15.4450 C   0  0  0  0  0
   27.8010  -23.9820   15.6100 C   0  0  0  0  0
   27.8760  -25.4910   15.5730 C   0  0  0  0  0
   25.6455  -16.2815    8.1668 H   0  0  0  0  0
   28.1635  -15.1174    7.1936 H   0  0  0  0  0
   27.6662  -13.2488    9.9376 H   0  0  0  0  0
   25.1191  -11.7450   10.3944 H   0  0  0  0  0
   26.7410  -12.9256   12.6802 H   0  0  0  0  0
   28.5130  -15.4205    9.1814 H   0  0  0  0  0
   26.9517  -16.1912    9.7849 H   0  0  0  0  0
   27.7940  -17.6652   11.0355 H   0  0  0  0  0
   29.9250  -16.5893   14.6067 H   0  0  0  0  0
   30.0199  -14.2325   13.7750 H   0  0  0  0  0
   29.0136  -13.6848   11.5595 H   0  0  0  0  0
   28.9011  -18.4697   15.2706 H   0  0  0  0  0
   30.3910  -18.9443   14.3804 H   0  0  0  0  0
   29.2484  -21.1270   13.8267 H   0  0  0  0  0
   27.9230  -20.6643   14.8607 H   0  0  0  0  0
   29.6885  -20.1685   16.6945 H   0  0  0  0  0
   30.8501  -21.0497   15.6277 H   0  0  0  0  0
   28.3654  -22.0885   16.9746 H   0  0  0  0  0
   30.0887  -22.6066   17.2085 H   0  0  0  0  0
   29.9400  -24.0747   15.5520 H   0  0  0  0  0
   29.2214  -22.8686   14.4568 H   0  0  0  0  0
   27.1692  -23.6581   14.7829 H   0  0  0  0  0
   27.4039  -23.6906   16.5824 H   0  0  0  0  0
   28.2879  -25.8097   14.6155 H   0  0  0  0  0
   28.5182  -25.8415   16.3810 H   0  0  0  0  0
   26.8758  -25.9063   15.6960 H   0  0  0  0  0
  1  2  2  0  0  0
  2  3  1  0  0  0
  2  4  1  0  0  0
  2  5  1  0  0  0
  5  6  1  0  0  0
  5 10  1  0  0  0
  6  7  1  0  0  0
  6  8  1  0  0  0
  6  9  2  0  0  0
 10 11  1  0  0  0
 11 12  4  0  0  0
 11 16  4  0  0  0
 12 13  4  0  0  0
 13 14  4  0  0  0
 13 17  1  0  0  0
 14 15  4  0  0  0
 15 16  4  0  0  0
 17 18  1  0  0  0
 18 19  1  0  0  0
 19 20  1  0  0  0
 20 21  1  0  0  0
 21 22  1  0  0  0
 22 23  1  0  0  0
 23 24  1  0  0  0
  3 25  1  0  0  0
  4 26  1  0  0  0
  5 27  1  0  0  0
  7 28  1  0  0  0
  8 29  1  0  0  0
 10 30  1  0  0  0
 10 31  1  0  0  0
 12 32  1  0  0  0
 14 33  1  0  0  0
 15 34  1  0  0  0
 16 35  1  0  0  0
 18 36  1  0  0  0
 18 37  1  0  0  0
 19 38  1  0  0  0
 19 39  1  0  0  0
 20 40  1  0  0  0
 20 41  1  0  0  0
 21 42  1  0  0  0
 21 43  1  0  0  0
 22 44  1  0  0  0
 22 45  1  0  0  0
 23 46  1  0  0  0
 23 47  1  0  0  0
 24 48  1  0  0  0
 24 49  1  0  0  0
 24 50  1  0  0  0
M  END
$$$$
