3ftq_ligand
  -I-interpret- 

 48 50  0  0  0  0  0  0  0  0999 V2000
   34.4590   14.3900    3.4350 P   0  0  0  0  0
   34.8950   14.7590    2.0370 O   0  0  0  0  0
   33.1380   14.9560    3.9090 O   0  0  0  0  0
   35.6330   14.7640    4.3120 O   0  0  0  0  0
   34.3600   12.7960    3.5120 N   0  0  0  0  0
   33.1970   11.8970    2.8920 P   0  0  0  0  0
   31.9790   11.9850    3.7460 O   0  0  0  0  0
   33.0300   12.3200    1.4820 O   0  0  0  0  0
   33.7080   10.4400    2.9160 O   0  0  0  0  0
   34.3970    9.7140    1.7450 P   0  0  0  0  0
   33.3700    9.3360    0.7470 O   0  0  0  0  0
   35.5770   10.4600    1.2730 O   0  0  0  0  0
   34.9540    8.3530    2.2910 O   0  0  0  0  0
   35.9240    8.2810    3.3360 C   0  0  0  0  0
   36.3880    6.8470    3.4260 C   0  0  0  0  0
   35.3500    6.0240    4.0220 O   0  0  0  0  0
   36.5850    6.2380    2.0490 C   0  0  0  0  0
   37.8950    6.5260    1.6610 O   0  0  0  0  0
   36.3540    4.7480    2.2600 C   0  0  0  0  0
   37.5750    4.0990    2.5340 O   0  0  0  0  0
   35.4560    4.7060    3.5020 C   0  0  0  0  0
   34.1080    4.2740    3.2060 N   0  0  0  0  0
   33.3360    4.7340    2.1620 C   0  0  0  0  0
   32.1470    4.2000    2.1010 N   0  0  0  0  0
   32.1400    3.3390    3.1790 C   0  0  0  0  0
   31.1070    2.5110    3.6070 C   0  0  0  0  0
   30.0020    2.3780    3.0940 O   0  0  0  0  0
   31.4510    1.7910    4.7400 N   0  0  0  0  0
   32.6530    1.8700    5.3850 C   0  0  0  0  0
   32.7520    1.0860    6.4600 N   0  0  0  0  0
   33.6530    2.6590    4.9980 N   0  0  0  0  0
   33.3250    3.3660    3.8830 C   0  0  0  0  0
   32.9658   14.6565    4.8047 H   0  0  0  0  0
   35.4271   14.5558    5.2263 H   0  0  0  0  0
   35.1097   12.3089    4.0029 H   0  0  0  0  0
   32.1908   11.6906    4.6348 H   0  0  0  0  0
   32.6612    8.8583    1.1841 H   0  0  0  0  0
   35.4890    8.6012    4.2828 H   0  0  0  0  0
   36.7646    8.9411    3.1221 H   0  0  0  0  0
   37.3129    6.8655    4.0025 H   0  0  0  0  0
   35.9199    6.6141    1.2717 H   0  0  0  0  0
   38.0586    6.1554    0.7907 H   0  0  0  0  0
   35.9199    4.2549    1.3902 H   0  0  0  0  0
   37.4154    3.1614    2.6648 H   0  0  0  0  0
   35.9084    4.0008    4.1992 H   0  0  0  0  0
   33.6878    5.4794    1.4488 H   0  0  0  0  0
   31.9668    0.4958    6.7349 H   0  0  0  0  0
   34.5512    2.7250    5.4768 H   0  0  0  0  0
  1  2  2  0  0  0
  1  3  1  0  0  0
  1  4  1  0  0  0
  1  5  1  0  0  0
  5  6  1  0  0  0
  6  7  1  0  0  0
  6  8  2  0  0  0
  6  9  1  0  0  0
  9 10  1  0  0  0
 10 11  1  0  0  0
 10 12  2  0  0  0
 10 13  1  0  0  0
 13 14  1  0  0  0
 14 15  1  0  0  0
 15 16  1  0  0  0
 15 17  1  0  0  0
 16 21  1  0  0  0
 17 18  1  0  0  0
 17 19  1  0  0  0
 19 20  1  0  0  0
 19 21  1  0  0  0
 21 22  1  0  0  0
 22 23  4  0  0  0
 22 32  4  0  0  0
 23 24  4  0  0  0
 24 25  4  0  0  0
 25 26  1  0  0  0
 25 32  4  0  0  0
 26 27  2  0  0  0
 26 28  1  0  0  0
 28 29  4  0  0  0
 29 30  2  0  0  0
 29 31  1  0  0  0
 31 32  1  0  0  0
  3 33  1  0  0  0
  4 34  1  0  0  0
  5 35  1  0  0  0
  7 36  1  0  0  0
 11 37  1  0  0  0
 14 38  1  0  0  0
 14 39  1  0  0  0
 15 40  1  0  0  0
 17 41  1  0  0  0
 18 42  1  0  0  0
 19 43  1  0  0  0
 20 44  1  0  0  0
 21 45  1  0  0  0
 23 46  1  0  0  0
 30 47  1  0  0  0
 31 48  1  0  0  0
M  END
$$$$
