3fvh_ligand
  -I-interpret- 

 84 84  0  0  0  0  0  0  0  0999 V2000
   -5.5750   14.4380   10.8990 C   0  0  0  0  0
   -5.3900   13.0750   11.1170 O   0  0  0  0  0
   -5.2750   15.1520   12.2240 C   0  0  0  0  0
   -5.9020   14.8930    9.7050 N   0  0  0  0  0
   -6.3480   13.9380    8.6970 C   0  0  0  0  0
   -5.2140   13.5250    7.7910 C   0  0  0  0  0
   -5.4430   12.9770    6.7060 O   0  0  0  0  0
   -7.4700   14.5390    7.8420 C   0  0  0  0  0
   -8.7350   14.7500    8.6800 C   0  0  0  0  0
   -9.7850   15.4770    7.8450 C   0  0  0  0  0
   -9.2880   13.4250    9.2450 C   0  0  0  0  0
   -3.9920   13.7960    8.2060 N   0  0  0  0  0
   -2.8480   13.4130    7.4070 C   0  0  0  0  0
   -1.6010   13.2660    8.2920 C   0  0  0  0  0
   -1.5140   13.7880    9.4100 O   0  0  0  0  0
   -2.5710   14.4430    6.2990 C   0  0  0  0  0
   -2.3610   15.8400    6.8040 C   0  0  0  0  0
   -1.2280   16.2400    7.4790 N   0  0  0  0  0
   -3.1520   16.9360    6.7300 C   0  0  0  0  0
   -1.3390   17.5080    7.8250 C   0  0  0  0  0
   -2.4940   17.9580    7.3700 N   0  0  0  0  0
   -0.6370   12.5460    7.7450 N   0  0  0  0  0
    0.6550   12.3620    8.3760 C   0  0  0  0  0
    1.4870   13.6860    8.4100 C   0  0  0  0  0
    1.0400   14.7050    7.9080 O   0  0  0  0  0
    1.3980   11.2050    7.7080 C   0  0  0  0  0
    1.7050   11.5280    6.3690 O   0  0  0  0  0
    2.6500   13.7080    9.0630 N   0  0  0  0  0
    3.3300   14.8430    9.2380 C   0  0  0  0  0
    4.5200   14.4920   10.1550 C   0  0  0  0  0
    5.3650   15.7190   10.5190 C   0  0  0  0  0
    4.0930   13.9200   11.3700 O   0  0  0  0  0
    4.4200   12.3360   11.6410 P   0  0  0  0  0
    3.8260   12.1080   12.9620 O   0  0  0  0  0
    5.8800   12.1660   11.5830 O   0  0  0  0  0
    3.7090   11.5270   10.6190 O   0  0  0  0  0
    3.6740   15.5790    8.1350 C   0  0  0  0  0
    4.2360   15.0440    7.2090 O   0  0  0  0  0
    3.3900   16.8880    8.1560 N   0  0  0  0  0
    3.6620   17.7350    6.9790 C   0  0  0  0  0
    4.9920   18.4780    6.9780 C   0  0  0  0  0
    5.5560   18.7270    8.0050 O   0  0  0  0  0
    2.4590   18.6710    6.7870 C   0  0  0  0  0
    5.5220   18.8460    5.6850 N   0  0  0  0  0
   -5.9568   14.7893   12.9932 H   0  0  0  0  0
   -4.2468   14.9460   12.5216 H   0  0  0  0  0
   -5.4090   16.2260   12.0950 H   0  0  0  0  0
   -5.8443   15.8888    9.4917 H   0  0  0  0  0
   -6.7176   13.0602    9.2270 H   0  0  0  0  0
   -7.6978   13.8527    7.0264 H   0  0  0  0  0
   -7.1397   15.5024    7.4536 H   0  0  0  0  0
   -8.4738   15.3651    9.5411 H   0  0  0  0  0
   -9.3918   16.4439    7.5308 H   0  0  0  0  0
  -10.0267   14.8788    6.9665 H   0  0  0  0  0
  -10.6839   15.6259    8.4433 H   0  0  0  0  0
   -9.5348   12.7551    8.4213 H   0  0  0  0  0
   -8.5342   12.9596    9.8801 H   0  0  0  0  0
  -10.1843   13.6275    9.8313 H   0  0  0  0  0
   -3.8526   14.2777    9.0942 H   0  0  0  0  0
   -3.0779   12.4548    6.9411 H   0  0  0  0  0
   -3.4457   14.4620    5.6489 H   0  0  0  0  0
   -1.6525   14.1390    5.7969 H   0  0  0  0  0
   -4.1295   16.9964    6.2515 H   0  0  0  0  0
   -0.6050   18.0841    8.3885 H   0  0  0  0  0
   -0.8090   12.1021    6.8429 H   0  0  0  0  0
    0.4993   12.0958    9.4215 H   0  0  0  0  0
    0.7639   10.3186    7.7238 H   0  0  0  0  0
    2.3247   11.0170    8.2501 H   0  0  0  0  0
    2.1707   10.7935    5.9625 H   0  0  0  0  0
    3.0282   12.8377    9.4370 H   0  0  0  0  0
    2.6481   15.5617    9.6925 H   0  0  0  0  0
    5.1162   13.7838    9.5795 H   0  0  0  0  0
    5.7635   16.1671    9.6088 H   0  0  0  0  0
    4.7422   16.4457   11.0407 H   0  0  0  0  0
    6.1877   15.4132   11.1653 H   0  0  0  0  0
    6.1851   12.3327   10.6882 H   0  0  0  0  0
    4.1041   11.6823    9.7580 H   0  0  0  0  0
    2.9819   17.3030    8.9936 H   0  0  0  0  0
    3.7821   17.0698    6.1239 H   0  0  0  0  0
    1.5597   18.0764    6.6265 H   0  0  0  0  0
    2.3344   19.2876    7.6771 H   0  0  0  0  0
    2.6325   19.3107    5.9217 H   0  0  0  0  0
    6.4125   19.3392    5.6204 H   0  0  0  0  0
    5.0056   18.6125    4.8369 H   0  0  0  0  0
  1  2  2  0  0  0
  1  3  1  0  0  0
  1  4  1  0  0  0
  4  5  1  0  0  0
  5  6  1  0  0  0
  5  8  1  0  0  0
  6  7  2  0  0  0
  6 12  1  0  0  0
  8  9  1  0  0  0
  9 10  1  0  0  0
  9 11  1  0  0  0
 12 13  1  0  0  0
 13 14  1  0  0  0
 13 16  1  0  0  0
 14 15  2  0  0  0
 14 22  1  0  0  0
 16 17  1  0  0  0
 17 18  4  0  0  0
 17 19  4  0  0  0
 18 20  4  0  0  0
 19 21  4  0  0  0
 20 21  4  0  0  0
 22 23  1  0  0  0
 23 24  1  0  0  0
 23 26  1  0  0  0
 24 25  2  0  0  0
 24 28  1  0  0  0
 26 27  1  0  0  0
 28 29  1  0  0  0
 29 30  1  0  0  0
 29 37  1  0  0  0
 30 31  1  0  0  0
 30 32  1  0  0  0
 32 33  1  0  0  0
 33 34  2  0  0  0
 33 35  1  0  0  0
 33 36  1  0  0  0
 37 38  2  0  0  0
 37 39  1  0  0  0
 39 40  1  0  0  0
 40 41  1  0  0  0
 40 43  1  0  0  0
 41 42  2  0  0  0
 41 44  1  0  0  0
  3 45  1  0  0  0
  3 46  1  0  0  0
  3 47  1  0  0  0
  4 48  1  0  0  0
  5 49  1  0  0  0
  8 50  1  0  0  0
  8 51  1  0  0  0
  9 52  1  0  0  0
 10 53  1  0  0  0
 10 54  1  0  0  0
 10 55  1  0  0  0
 11 56  1  0  0  0
 11 57  1  0  0  0
 11 58  1  0  0  0
 12 59  1  0  0  0
 13 60  1  0  0  0
 16 61  1  0  0  0
 16 62  1  0  0  0
 19 63  1  0  0  0
 20 64  1  0  0  0
 22 65  1  0  0  0
 23 66  1  0  0  0
 26 67  1  0  0  0
 26 68  1  0  0  0
 27 69  1  0  0  0
 28 70  1  0  0  0
 29 71  1  0  0  0
 30 72  1  0  0  0
 31 73  1  0  0  0
 31 74  1  0  0  0
 31 75  1  0  0  0
 35 76  1  0  0  0
 36 77  1  0  0  0
 39 78  1  0  0  0
 40 79  1  0  0  0
 43 80  1  0  0  0
 43 81  1  0  0  0
 43 82  1  0  0  0
 44 83  1  0  0  0
 44 84  1  0  0  0
M  END
$$$$
