3fxz_ligand
  -I-interpret- 

 61 69  0  0  0  0  0  0  0  0999 V2000
  -17.0160   35.3940  -16.1810 F   0  0  0  0  0
  -15.6820   35.2860  -16.1360 C   0  0  0  0  0
  -15.0430   35.2100  -17.3820 C   0  0  0  0  0
  -13.7110   35.1140  -17.4080 N   0  0  0  0  0
  -10.9530   34.9100  -17.4980 N   0  0  0  0  0
  -12.6970   32.8090  -18.6480 N   0  0  0  0  0
  -12.0240   32.0330  -17.7620 C   0  0  0  0  0
  -12.3400   30.6760  -17.5760 C   0  0  0  0  0
  -13.3890   30.1500  -18.3100 C   0  0  0  0  0
  -14.1220   30.9240  -19.1990 C   0  0  0  0  0
  -13.7440   32.2600  -19.3320 C   0  0  0  0  0
  -14.4210   33.1830  -20.2260 C   0  0  0  0  0
  -12.2770   36.6640  -19.3780 C   0  0  0  0  0
  -12.2040   37.7900  -19.7060 O   0  0  0  0  0
  -13.9640   34.3980  -20.2620 N   0  0  0  0  0
  -14.5870   35.3320  -21.1920 C   0  0  0  0  0
  -15.8410   35.8340  -20.9340 C   0  0  0  0  0
  -16.4190   36.7400  -21.8100 C   0  0  0  0  0
  -15.7300   37.1340  -22.9500 C   0  0  0  0  0
  -14.4660   36.6450  -23.2260 C   0  0  0  0  0
  -13.8910   35.7310  -22.3300 C   0  0  0  0  0
  -10.8740   34.2590  -20.7720 Cl  0  0  0  0  0
  -15.0480   35.2380  -14.9310 C   0  0  0  0  0
  -13.6300   35.1280  -14.9410 C   0  0  0  0  0
  -13.0150   35.0590  -16.2180 C   0  0  0  0  0
  -12.7330   35.0550  -13.8300 C   0  0  0  0  0
  -13.0410   35.0760  -12.4040 C   0  0  0  0  0
  -11.8420   34.9720  -11.7310 N   0  0  0  0  0
  -14.1500   35.1460  -11.9100 O   0  0  0  0  0
  -11.3520   34.9420  -13.9640 C   0  0  0  0  0
  -10.7690   34.8810  -12.5920 C   0  0  0  0  0
   -9.5930   34.8070  -12.2740 O   0  0  0  0  0
  -10.7440   34.8830  -15.2180 C   0  0  0  0  0
  -11.6060   34.9370  -16.3320 C   0  0  0  0  0
   -9.4190   34.7670  -15.7820 C   0  0  0  0  0
   -9.6080   34.7710  -17.1930 C   0  0  0  0  0
   -8.1590   34.6540  -15.2130 C   0  0  0  0  0
   -7.0640   34.5480  -16.0640 C   0  0  0  0  0
   -5.7990   34.4440  -15.5800 O   0  0  0  0  0
   -7.2510   34.5640  -17.4530 C   0  0  0  0  0
   -8.4930   34.6520  -18.0290 C   0  0  0  0  0
  -12.4020   34.8750  -19.0280 Ru  0  0  0  0  0
  -15.6194   35.2288  -18.3069 H   0  0  0  0  0
  -11.2159   32.4739  -17.1782 H   0  0  0  0  0
  -11.7772   30.0580  -16.8764 H   0  0  0  0  0
  -13.6468   29.0982  -18.1864 H   0  0  0  0  0
  -14.9540   30.5073  -19.7666 H   0  0  0  0  0
  -15.4458   33.2575  -19.8622 H   0  0  0  0  0
  -14.2879   32.7814  -21.2305 H   0  0  0  0  0
  -12.2011   36.9159  -18.3202 H   0  0  0  0  0
  -16.3806   35.5196  -20.0407 H   0  0  0  0  0
  -17.4112   37.1419  -21.6047 H   0  0  0  0  0
  -16.1933   37.8405  -23.6387 H   0  0  0  0  0
  -13.9286   36.9625  -24.1196 H   0  0  0  0  0
  -12.8957   35.3318  -22.5256 H   0  0  0  0  0
  -15.6058   35.2822  -13.9956 H   0  0  0  0  0
  -11.7586   34.9634  -10.7145 H   0  0  0  0  0
   -8.0308   34.6484  -14.1306 H   0  0  0  0  0
   -5.1815   34.3811  -16.3124 H   0  0  0  0  0
   -6.3761   34.5042  -18.1004 H   0  0  0  0  0
   -8.6082   34.6297  -19.1127 H   0  0  0  0  0
  2  1  1  0  0  0
  3  2  4  0  0  0
  2 23  4  0  0  0
  4  3  4  0  0  0
  4 25  4  0  0  0
  5 34  4  0  0  0
  5 36  4  0  0  0
  6  7  4  0  0  0
  6 11  4  0  0  0
  7  8  4  0  0  0
  8  9  4  0  0  0
 10  9  4  0  0  0
 11 10  4  0  0  0
 11 12  1  0  0  0
 12 15  1  0  0  0
 13 14  2  0  0  0
 15 16  1  0  0  0
 16 17  4  0  0  0
 16 21  4  0  0  0
 17 18  4  0  0  0
 18 19  4  0  0  0
 20 19  4  0  0  0
 21 20  4  0  0  0
 24 23  4  0  0  0
 25 24  4  0  0  0
 24 26  4  0  0  0
 34 25  4  0  0  0
 26 27  1  0  0  0
 30 26  4  0  0  0
 27 28  1  0  0  0
 27 29  2  0  0  0
 31 28  1  0  0  0
 30 31  1  0  0  0
 33 30  4  0  0  0
 31 32  2  0  0  0
 34 33  4  0  0  0
 35 33  4  0  0  0
 36 35  4  0  0  0
 35 37  4  0  0  0
 36 41  4  0  0  0
 37 38  4  0  0  0
 38 39  1  0  0  0
 40 38  4  0  0  0
 41 40  4  0  0  0
 42  4  1  0  0  0
 42  5  1  0  0  0
 42  6  1  0  0  0
 42 13  1  0  0  0
 42 15  1  0  0  0
 42 22  1  0  0  0
  3 43  1  0  0  0
  7 44  1  0  0  0
  8 45  1  0  0  0
  9 46  1  0  0  0
 10 47  1  0  0  0
 12 48  1  0  0  0
 12 49  1  0  0  0
 13 50  1  0  0  0
 17 51  1  0  0  0
 18 52  1  0  0  0
 19 53  1  0  0  0
 20 54  1  0  0  0
 21 55  1  0  0  0
 23 56  1  0  0  0
 28 57  1  0  0  0
 37 58  1  0  0  0
 39 59  1  0  0  0
 40 60  1  0  0  0
 41 61  1  0  0  0
M  END
$$$$
