3gep_ligand
  -I-interpret- 

 34 35  0  0  0  0  0  0  0  0999 V2000
   19.2420   55.9400    7.8790 C   0  0  0  0  0
   20.2420   54.9740    7.9570 C   0  0  0  0  0
   20.0140   53.7050    7.4340 C   0  0  0  0  0
   20.9630   56.8160    8.8710 C   0  0  0  0  0
   20.9000   52.8240    7.4970 O   0  0  0  0  0
   21.2930   55.5380    8.5820 N   0  0  0  0  0
   18.8180   53.4320    6.8590 N   0  0  0  0  0
   17.8450   54.3760    6.7950 C   0  0  0  0  0
   16.6630   54.0790    6.2020 N   0  0  0  0  0
   18.0520   55.6160    7.3020 N   0  0  0  0  0
   19.7120   57.0590    8.4660 N   0  0  0  0  0
   19.0140   58.3380    8.5910 C   0  0  0  0  0
   18.6030   58.7820   10.0020 C   0  0  0  0  0
   17.2510   58.1590   10.2980 C   0  0  0  0  0
   16.3320   59.2590   10.3440 O   0  0  0  0  0
   19.5490   58.6020   11.0820 O   0  0  0  0  0
   19.3100   59.6060   12.0820 C   0  0  0  0  0
   20.7510   60.1120   13.0790 P   0  0  0  0  0
   20.8400   59.0940   14.1900 O   0  0  0  0  0
   21.9220   60.1400   12.1290 O   0  0  0  0  0
   20.4270   61.4920   13.5960 O   0  0  0  0  0
   21.6167   57.5385    9.3596 H   0  0  0  0  0
   16.5093   53.1510    5.8075 H   0  0  0  0  0
   17.3091   56.3131    7.2508 H   0  0  0  0  0
   18.0832   58.2212    8.0360 H   0  0  0  0  0
   19.7164   59.0928    8.2374 H   0  0  0  0  0
   18.5624   59.8708    9.9725 H   0  0  0  0  0
   17.2608   57.6038   11.2359 H   0  0  0  0  0
   16.9687   57.4308    9.5377 H   0  0  0  0  0
   15.4495   58.9297   10.5293 H   0  0  0  0  0
   18.5938   59.1740   12.7809 H   0  0  0  0  0
   18.9838   60.4971   11.5457 H   0  0  0  0  0
   20.0545   59.1515   14.7388 H   0  0  0  0  0
   19.6795   61.4403   14.1962 H   0  0  0  0  0
  1  2  4  0  0  0
  1 10  1  0  0  0
  1 11  4  0  0  0
  2  3  1  0  0  0
  2  6  4  0  0  0
  3  5  2  0  0  0
  3  7  1  0  0  0
  6  4  4  0  0  0
  4 11  4  0  0  0
  7  8  4  0  0  0
  8  9  2  0  0  0
  8 10  1  0  0  0
 11 12  1  0  0  0
 12 13  1  0  0  0
 13 14  1  0  0  0
 13 16  1  0  0  0
 14 15  1  0  0  0
 16 17  1  0  0  0
 17 18  1  0  0  0
 18 19  1  0  0  0
 18 20  2  0  0  0
 18 21  1  0  0  0
  4 22  1  0  0  0
  9 23  1  0  0  0
 10 24  1  0  0  0
 12 25  1  0  0  0
 12 26  1  0  0  0
 13 27  1  0  0  0
 14 28  1  0  0  0
 14 29  1  0  0  0
 15 30  1  0  0  0
 17 31  1  0  0  0
 17 32  1  0  0  0
 19 33  1  0  0  0
 21 34  1  0  0  0
M  END
$$$$
