3hv8_ligand
  -I-interpret- 

 68 74  0  0  0  0  0  0  0  0999 V2000
  -27.6550   -1.4580  -15.2170 P   0  0  0  0  0
  -28.5730   -0.3880  -14.4650 O   0  0  0  0  0
  -27.9830   -1.3500  -16.6530 O   0  0  0  0  0
  -26.0930   -1.1470  -15.1600 O   0  0  0  0  0
  -25.5750   -0.1740  -16.0880 C   0  0  0  0  0
  -24.9600   -0.7960  -17.3600 C   0  0  0  0  0
  -24.4100    0.2680  -18.1740 O   0  0  0  0  0
  -23.7610   -1.6060  -16.8840 C   0  0  0  0  0
  -23.6360   -2.7860  -17.6920 O   0  0  0  0  0
  -22.5620   -0.6400  -17.0340 C   0  0  0  0  0
  -21.3320   -1.2950  -17.2810 O   0  0  0  0  0
  -22.9960    0.1650  -18.2590 C   0  0  0  0  0
  -22.4350    1.5050  -18.3410 N   0  0  0  0  0
  -21.8560    2.2310  -17.3270 C   0  0  0  0  0
  -21.6340    3.4590  -17.7370 N   0  0  0  0  0
  -22.0410    3.5650  -19.0360 C   0  0  0  0  0
  -22.0380    4.6210  -19.9750 C   0  0  0  0  0
  -21.6550    5.7600  -19.7010 O   0  0  0  0  0
  -22.5100    4.3400  -21.1980 N   0  0  0  0  0
  -22.9690    3.1030  -21.5290 C   0  0  0  0  0
  -23.4410    2.8950  -22.7990 N   0  0  0  0  0
  -22.9780    2.1130  -20.6670 N   0  0  0  0  0
  -22.5320    2.3200  -19.4270 C   0  0  0  0  0
  -23.3530   -4.1700  -16.9210 P   0  0  0  0  0
  -23.1800   -5.2930  -18.0100 O   0  0  0  0  0
  -22.2310   -4.0300  -15.9710 O   0  0  0  0  0
  -24.6600   -4.4130  -16.0560 O   0  0  0  0  0
  -25.9140   -4.5930  -16.7280 C   0  0  0  0  0
  -27.0060   -4.9780  -15.7330 C   0  0  0  0  0
  -26.6530   -6.2170  -15.1000 O   0  0  0  0  0
  -27.1990   -3.9900  -14.5810 C   0  0  0  0  0
  -28.1030   -2.9400  -14.9020 O   0  0  0  0  0
  -27.8830   -4.8890  -13.5490 C   0  0  0  0  0
  -29.2610   -5.0980  -13.9040 O   0  0  0  0  0
  -27.1730   -6.2270  -13.7860 C   0  0  0  0  0
  -26.0670   -6.3450  -12.8440 N   0  0  0  0  0
  -24.7720   -5.9360  -12.9910 C   0  0  0  0  0
  -24.1150   -6.2410  -11.9060 N   0  0  0  0  0
  -24.9320   -6.9190  -11.0450 C   0  0  0  0  0
  -24.7910   -7.5190   -9.7770 C   0  0  0  0  0
  -23.7610   -7.4320   -9.0970 O   0  0  0  0  0
  -25.9020   -8.1230   -9.2800 N   0  0  0  0  0
  -27.0940   -8.1670   -9.9510 C   0  0  0  0  0
  -28.1740   -8.7580   -9.3590 N   0  0  0  0  0
  -27.2490   -7.5930  -11.1150 N   0  0  0  0  0
  -26.1870   -6.9940  -11.6660 C   0  0  0  0  0
  -28.3943   -0.4210  -13.5224 H   0  0  0  0  0
  -24.7831    0.3741  -15.5775 H   0  0  0  0  0
  -26.4093    0.4531  -16.4024 H   0  0  0  0  0
  -25.6982   -1.3780  -17.9117 H   0  0  0  0  0
  -23.8403   -1.9594  -15.8559 H   0  0  0  0  0
  -22.3667   -0.0633  -16.1299 H   0  0  0  0  0
  -20.6336   -0.6415  -17.3632 H   0  0  0  0  0
  -22.6355   -0.3512  -19.1488 H   0  0  0  0  0
  -21.6178    1.8466  -16.3352 H   0  0  0  0  0
  -23.4432    3.6598  -23.4739 H   0  0  0  0  0
  -23.3230    1.1936  -20.9429 H   0  0  0  0  0
  -23.9539   -5.3085  -18.5778 H   0  0  0  0  0
  -25.8093   -5.3904  -17.4637 H   0  0  0  0  0
  -26.1922   -3.6575  -17.2134 H   0  0  0  0  0
  -27.9196   -5.0161  -16.3263 H   0  0  0  0  0
  -26.2674   -3.5078  -14.2847 H   0  0  0  0  0
  -27.8379   -4.4844  -12.5379 H   0  0  0  0  0
  -29.6770   -5.6629  -13.2487 H   0  0  0  0  0
  -27.8642   -7.0590  -13.6517 H   0  0  0  0  0
  -24.3572   -5.4384  -13.8676 H   0  0  0  0  0
  -28.0872   -9.1609   -8.4260 H   0  0  0  0  0
  -28.1522   -7.6014  -11.5889 H   0  0  0  0  0
  1  2  1  0  0  0
  1  3  2  0  0  0
  1  4  1  0  0  0
  1 32  1  0  0  0
  4  5  1  0  0  0
  5  6  1  0  0  0
  6  7  1  0  0  0
  6  8  1  0  0  0
  7 12  1  0  0  0
  8  9  1  0  0  0
  8 10  1  0  0  0
  9 24  1  0  0  0
 10 11  1  0  0  0
 10 12  1  0  0  0
 12 13  1  0  0  0
 13 14  4  0  0  0
 13 23  4  0  0  0
 14 15  4  0  0  0
 15 16  4  0  0  0
 16 17  1  0  0  0
 16 23  4  0  0  0
 17 18  2  0  0  0
 17 19  1  0  0  0
 19 20  4  0  0  0
 20 21  2  0  0  0
 20 22  1  0  0  0
 22 23  1  0  0  0
 24 25  1  0  0  0
 24 26  2  0  0  0
 24 27  1  0  0  0
 27 28  1  0  0  0
 28 29  1  0  0  0
 29 30  1  0  0  0
 29 31  1  0  0  0
 30 35  1  0  0  0
 31 32  1  0  0  0
 31 33  1  0  0  0
 33 34  1  0  0  0
 33 35  1  0  0  0
 35 36  1  0  0  0
 36 37  4  0  0  0
 36 46  4  0  0  0
 37 38  4  0  0  0
 38 39  4  0  0  0
 39 40  1  0  0  0
 39 46  4  0  0  0
 40 41  2  0  0  0
 40 42  1  0  0  0
 42 43  4  0  0  0
 43 44  2  0  0  0
 43 45  1  0  0  0
 45 46  1  0  0  0
  2 47  1  0  0  0
  5 48  1  0  0  0
  5 49  1  0  0  0
  6 50  1  0  0  0
  8 51  1  0  0  0
 10 52  1  0  0  0
 11 53  1  0  0  0
 12 54  1  0  0  0
 14 55  1  0  0  0
 21 56  1  0  0  0
 22 57  1  0  0  0
 25 58  1  0  0  0
 28 59  1  0  0  0
 28 60  1  0  0  0
 29 61  1  0  0  0
 31 62  1  0  0  0
 33 63  1  0  0  0
 34 64  1  0  0  0
 35 65  1  0  0  0
 37 66  1  0  0  0
 44 67  1  0  0  0
 45 68  1  0  0  0
M  END
$$$$
