3hxi_ligand
  -I-interpret- 

 80 85  0  0  0  0  0  0  0  0999 V2000
   35.0610   18.6070    3.4120 P   0  0  0  0  0
   34.7370   17.9350    2.1050 O   0  0  0  0  0
   33.9850   18.9630    4.4150 O   0  0  0  0  0
   36.2170   17.8450    4.2250 O   0  0  0  0  0
   36.8330   16.3960    3.9980 P   0  0  0  0  0
   35.7560   15.3400    3.9600 O   0  0  0  0  0
   37.9630   16.2800    5.0160 O   0  0  0  0  0
   37.5250   16.5920    2.5600 O   0  0  0  0  0
   34.9000   23.7060    1.7710 N   0  3  0  0  0
   33.9860   22.9410    2.3770 C   0  0  0  0  0
   32.8760   23.6820    2.5940 N   0  0  0  0  0
   31.6510   23.1560    3.2460 C   0  0  0  0  0
   33.1140   24.9070    2.1190 C   0  0  0  0  0
   32.3180   26.0580    2.0850 C   0  0  0  0  0
   31.1520   26.0960    2.5420 O   0  0  0  0  0
   32.8550   27.1810    1.5460 N   0  0  0  0  0
   34.1260   27.1600    1.0330 C   0  0  0  0  0
   34.6790   28.2580    0.4870 N   0  0  0  0  0
   34.8870   26.0430    1.0650 N   0  0  0  0  0
   34.3840   24.9160    1.5980 C   0  0  0  0  0
   35.7630   19.9760    3.0360 O   0  0  0  0  0
   36.9330   19.9520    2.2250 C   0  0  0  0  0
   37.3410   21.3710    1.8980 C   0  0  0  0  0
   36.3480   21.9440    1.0590 O   0  0  0  0  0
   37.4250   22.2830    3.1050 C   0  0  0  0  0
   38.6700   22.1330    3.7840 O   0  0  0  0  0
   37.2560   23.6410    2.4670 C   0  0  0  0  0
   38.5040   24.0730    1.9040 O   0  0  0  0  0
   36.2720   23.3410    1.3420 C   0  0  0  0  0
   38.1790   15.4550    1.6320 P   0  0  0  0  0
   37.6950   14.0770    1.9540 O   0  0  0  0  0
   39.6710   15.7240    1.5410 O   0  0  0  0  0
   37.5480   15.8920    0.2200 O   0  0  0  0  0
   36.1680   15.6560   -0.0530 C   0  0  0  0  0
   35.8480   16.0650   -1.4760 C   0  0  0  0  0
   36.0570   17.4740   -1.6080 O   0  0  0  0  0
   36.7610   15.4160   -2.5000 C   0  0  0  0  0
   36.0190   15.3310   -3.7280 O   0  0  0  0  0
   37.8860   16.4220   -2.6970 C   0  0  0  0  0
   38.5200   16.3110   -3.9820 O   0  0  0  0  0
   37.1070   17.7230   -2.5630 C   0  0  0  0  0
   37.8390   18.9090   -2.0760 N   0  0  0  0  0
   38.4110   18.7640   -0.7580 C   0  0  0  0  0
   38.9960   20.0870   -0.5640 N   0  0  0  0  0
   38.7120   20.8490   -1.6630 C   0  0  0  0  0
   39.0210   22.2410   -2.0350 C   0  0  0  0  0
   39.6780   22.9370   -1.2150 O   0  0  0  0  0
   38.5950   22.6900   -3.2500 N   0  0  0  0  0
   37.8800   21.8910   -4.1150 C   0  0  0  0  0
   37.4550   22.3570   -5.3160 N   0  0  0  0  0
   37.5610   20.6050   -3.8290 N   0  0  0  0  0
   37.9370   20.0740   -2.6480 C   0  0  0  0  0
   34.3875   19.3817    5.1794 H   0  0  0  0  0
   38.5624   17.0228    4.9131 H   0  0  0  0  0
   34.1144   21.8938    2.6507 H   0  0  0  0  0
   31.2584   22.3241    2.6613 H   0  0  0  0  0
   31.8950   22.8121    4.2511 H   0  0  0  0  0
   30.9030   23.9468    3.3027 H   0  0  0  0  0
   34.1508   29.1297    0.4486 H   0  0  0  0  0
   35.8347   26.0553    0.6880 H   0  0  0  0  0
   36.7275   19.4088    1.3026 H   0  0  0  0  0
   37.7402   19.4540    2.7622 H   0  0  0  0  0
   38.3282   21.2987    1.4416 H   0  0  0  0  0
   36.6872   22.0820    3.8818 H   0  0  0  0  0
   38.6930   22.7220    4.5417 H   0  0  0  0  0
   36.9281   24.4176    3.1580 H   0  0  0  0  0
   38.3898   24.9364    1.5002 H   0  0  0  0  0
   36.5156   23.9177    0.4497 H   0  0  0  0  0
   39.8159   16.6489    1.3285 H   0  0  0  0  0
   35.5595   16.2422    0.6355 H   0  0  0  0  0
   35.9523   14.5951    0.0738 H   0  0  0  0  0
   34.8190   15.7567   -1.6610 H   0  0  0  0  0
   37.1232   14.4314   -2.2043 H   0  0  0  0  0
   36.5661   14.9237   -4.4036 H   0  0  0  0  0
   38.7174   16.3025   -2.0023 H   0  0  0  0  0
   39.2182   16.9663   -4.0508 H   0  0  0  0  0
   36.7945   17.9741   -3.5766 H   0  0  0  0  0
   38.4070   17.9022   -0.0906 H   0  0  0  0  0
   37.6635   23.3161   -5.5937 H   0  0  0  0  0
   37.0403   20.0430   -4.5023 H   0  0  0  0  0
  1  2  2  0  0  0
  1  3  1  0  0  0
  1  4  1  0  0  0
 21  1  1  0  0  0
  4  5  1  0  0  0
  5  6  2  0  0  0
  5  7  1  0  0  0
  5  8  1  0  0  0
  8 30  1  0  0  0
  9 10  4  0  0  0
  9 20  4  0  0  0
 29  9  1  0  0  0
 10 11  4  0  0  0
 11 12  1  0  0  0
 13 11  4  0  0  0
 13 14  1  0  0  0
 20 13  4  0  0  0
 14 15  2  0  0  0
 14 16  1  0  0  0
 17 16  4  0  0  0
 17 18  2  0  0  0
 19 17  1  0  0  0
 20 19  1  0  0  0
 22 21  1  0  0  0
 23 22  1  0  0  0
 24 23  1  0  0  0
 23 25  1  0  0  0
 24 29  1  0  0  0
 25 26  1  0  0  0
 25 27  1  0  0  0
 27 28  1  0  0  0
 27 29  1  0  0  0
 30 31  2  0  0  0
 30 32  1  0  0  0
 30 33  1  0  0  0
 33 34  1  0  0  0
 34 35  1  0  0  0
 35 36  1  0  0  0
 35 37  1  0  0  0
 36 41  1  0  0  0
 37 38  1  0  0  0
 37 39  1  0  0  0
 39 40  1  0  0  0
 39 41  1  0  0  0
 41 42  1  0  0  0
 42 43  4  0  0  0
 42 52  4  0  0  0
 43 44  4  0  0  0
 44 45  4  0  0  0
 45 46  1  0  0  0
 45 52  4  0  0  0
 46 47  2  0  0  0
 46 48  1  0  0  0
 48 49  4  0  0  0
 49 50  2  0  0  0
 49 51  1  0  0  0
 51 52  1  0  0  0
  3 53  1  0  0  0
  7 54  1  0  0  0
 10 55  1  0  0  0
 12 56  1  0  0  0
 12 57  1  0  0  0
 12 58  1  0  0  0
 18 59  1  0  0  0
 19 60  1  0  0  0
 22 61  1  0  0  0
 22 62  1  0  0  0
 23 63  1  0  0  0
 25 64  1  0  0  0
 26 65  1  0  0  0
 27 66  1  0  0  0
 28 67  1  0  0  0
 29 68  1  0  0  0
 32 69  1  0  0  0
 34 70  1  0  0  0
 34 71  1  0  0  0
 35 72  1  0  0  0
 37 73  1  0  0  0
 38 74  1  0  0  0
 39 75  1  0  0  0
 40 76  1  0  0  0
 41 77  1  0  0  0
 43 78  1  0  0  0
 50 79  1  0  0  0
 51 80  1  0  0  0
M  END
$$$$
