3kck_ligand
  -I-interpret- 

 36 40  0  0  0  0  0  0  0  0999 V2000
   11.3710   15.0250    0.2900 C   0  0  0  0  0
   11.2260   14.7080    1.6450 C   0  0  0  0  0
   10.4130   15.5800    2.3410 C   0  0  0  0  0
    9.7220   16.6320    1.8570 C   0  0  0  0  0
   15.5090   14.0860    5.8360 C   0  0  0  0  0
   15.3590   11.8070    5.0530 C   0  0  0  0  0
   13.7440   11.0000    3.4190 C   0  0  0  0  0
   12.0640    9.8950    1.9240 C   0  0  0  0  0
   10.8830   11.6810    1.1960 C   0  0  0  0  0
   12.5970   11.0690    2.5450 C   0  0  0  0  0
    9.1560   18.0160    0.0610 O   0  0  0  0  0
    9.8430   16.9170    0.5090 C   0  0  0  0  0
   10.6800   16.1100   -0.2760 C   0  0  0  0  0
   10.2360   15.2770    3.9660 Cl  0  0  0  0  0
   12.0170   13.6250    2.3270 C   0  0  0  0  0
   12.9060   14.0610    3.2420 N   0  0  0  0  0
   13.8600   13.5010    4.0940 C   0  0  0  0  0
   14.5020   14.4540    4.9300 C   0  0  0  0  0
   15.9280   12.7550    5.9060 C   0  0  0  0  0
   14.3180   12.1570    4.1690 C   0  0  0  0  0
   14.3160    9.7210    3.6800 C   0  0  0  0  0
   13.7470    8.6120    3.0240 C   0  0  0  0  0
   12.6670    8.7330    2.2090 N   0  0  0  0  0
   11.0110   10.3200    1.1340 N   0  0  0  0  0
   11.8030   12.2030    2.0320 C   0  0  0  0  0
   12.0292   14.4219   -0.3355 H   0  0  0  0  0
    9.0894   17.2373    2.5062 H   0  0  0  0  0
   15.9628   14.8366    6.4831 H   0  0  0  0  0
   15.7254   10.7806    5.0709 H   0  0  0  0  0
   10.1416   12.2614    0.6468 H   0  0  0  0  0
    9.3065   18.1240   -0.8809 H   0  0  0  0  0
   10.7958   16.3271   -1.3379 H   0  0  0  0  0
   14.2040   15.5005    4.8659 H   0  0  0  0  0
   16.6944   12.4584    6.6221 H   0  0  0  0  0
   15.1600    9.6056    4.3600 H   0  0  0  0  0
   14.1869    7.6262    3.1750 H   0  0  0  0  0
  2  1  4  0  0  0
  1 13  4  0  0  0
  2  3  4  0  0  0
 15  2  1  0  0  0
  3  4  4  0  0  0
  3 14  1  0  0  0
  4 12  4  0  0  0
  5 18  4  0  0  0
 19  5  4  0  0  0
  6 19  4  0  0  0
 20  6  4  0  0  0
 10  7  4  0  0  0
  7 20  4  0  0  0
  7 21  4  0  0  0
 10  8  4  0  0  0
  8 23  4  0  0  0
  8 24  4  0  0  0
  9 24  4  0  0  0
 25  9  4  0  0  0
 25 10  4  0  0  0
 12 11  1  0  0  0
 13 12  4  0  0  0
 15 16  4  0  0  0
 15 25  4  0  0  0
 16 17  4  0  0  0
 17 18  4  0  0  0
 17 20  4  0  0  0
 21 22  4  0  0  0
 22 23  4  0  0  0
  1 26  1  0  0  0
  4 27  1  0  0  0
  5 28  1  0  0  0
  6 29  1  0  0  0
  9 30  1  0  0  0
 11 31  1  0  0  0
 13 32  1  0  0  0
 18 33  1  0  0  0
 19 34  1  0  0  0
 21 35  1  0  0  0
 22 36  1  0  0  0
M  END
$$$$
