3kyg_ligand
  -I-interpret- 

 35 37  0  0  0  0  0  0  0  0999 V2000
    5.4860  -15.3530  -12.7960 P   0  0  0  0  0
    4.8020  -14.7520  -13.9690 O   0  0  0  0  0
    4.7190  -16.4980  -12.2460 O   0  0  0  0  0
    5.6240  -14.2990  -11.6020 O   0  0  0  0  0
    6.0630  -12.9710  -11.9090 C   0  0  0  0  0
    6.3100  -12.1800  -10.6240 C   0  0  0  0  0
    5.1140  -12.0850   -9.8340 O   0  0  0  0  0
    7.3070  -12.9260   -9.7390 C   0  0  0  0  0
    8.6320  -12.6230  -10.1860 O   0  0  0  0  0
    7.0270  -12.1900   -8.4300 C   0  0  0  0  0
    7.5460  -10.8590   -8.4920 O   0  0  0  0  0
    5.4980  -12.1380   -8.4500 C   0  0  0  0  0
    4.9130  -13.3710   -7.8840 N   0  0  0  0  0
    4.3970  -14.4020   -8.5520 C   0  0  0  0  0
    3.8980  -15.2800   -7.6840 N   0  0  0  0  0
    4.0960  -14.8080   -6.4540 C   0  0  0  0  0
    3.7390  -15.2440   -5.1850 C   0  0  0  0  0
    3.1760  -16.3260   -5.0240 O   0  0  0  0  0
    4.0440  -14.4430   -4.0780 N   0  0  0  0  0
    4.7140  -13.2280   -4.2760 C   0  0  0  0  0
    5.0440  -12.4640   -3.2380 N   0  0  0  0  0
    5.0460  -12.8400   -5.5140 N   0  0  0  0  0
    4.7510  -13.5900   -6.5850 C   0  0  0  0  0
    5.3228  -14.0164  -14.2995 H   0  0  0  0  0
    5.2915  -12.4683  -12.4923 H   0  0  0  0  0
    6.9926  -13.0267  -12.4755 H   0  0  0  0  0
    6.6677  -11.1958  -10.9266 H   0  0  0  0  0
    7.2242  -14.0124   -9.7070 H   0  0  0  0  0
    8.8049  -13.0868  -11.0085 H   0  0  0  0  0
    7.4648  -12.6567   -7.5476 H   0  0  0  0  0
    7.3642  -10.4070   -7.6648 H   0  0  0  0  0
    5.1526  -11.2837   -7.8678 H   0  0  0  0  0
    4.3852  -14.5096   -9.6366 H   0  0  0  0  0
    4.8095  -12.7613   -2.2909 H   0  0  0  0  0
    5.5342  -11.9540   -5.6448 H   0  0  0  0  0
  1  2  1  0  0  0
  1  3  2  0  0  0
  1  4  1  0  0  0
  4  5  1  0  0  0
  5  6  1  0  0  0
  6  7  1  0  0  0
  6  8  1  0  0  0
  7 12  1  0  0  0
  8  9  1  0  0  0
  8 10  1  0  0  0
 10 11  1  0  0  0
 10 12  1  0  0  0
 12 13  1  0  0  0
 13 14  4  0  0  0
 13 23  4  0  0  0
 14 15  4  0  0  0
 15 16  4  0  0  0
 16 17  1  0  0  0
 16 23  4  0  0  0
 17 18  2  0  0  0
 17 19  1  0  0  0
 19 20  4  0  0  0
 20 21  2  0  0  0
 20 22  1  0  0  0
 22 23  1  0  0  0
  2 24  1  0  0  0
  5 25  1  0  0  0
  5 26  1  0  0  0
  6 27  1  0  0  0
  8 28  1  0  0  0
  9 29  1  0  0  0
 10 30  1  0  0  0
 11 31  1  0  0  0
 12 32  1  0  0  0
 14 33  1  0  0  0
 21 34  1  0  0  0
 22 35  1  0  0  0
M  END
$$$$
