3nkx_ligand
  -I-interpret- 

142143  0  0  0  0  0  0  0  0999 V2000
   53.2330  -10.4480   -5.0500 N   0  3  0  0  0
   53.0400   -9.4210   -3.9720 C   0  0  0  0  0
   53.1090   -9.9890   -2.5270 C   0  0  0  0  0
   52.3460  -10.8960   -2.1320 O   0  0  0  0  0
   51.7660   -8.6020   -4.2070 C   0  0  0  0  0
   52.0360   -7.2100   -4.8670 C   0  0  0  0  0
   51.9540   -6.0430   -3.8340 C   0  0  0  0  0
   50.5840   -5.8130   -3.3370 N   0  0  0  0  0
   50.2640   -5.4950   -2.0710 C   0  0  0  0  0
   51.2060   -5.3550   -1.1360 N   0  0  0  0  0
   48.9940   -5.3230   -1.7240 N   0  0  0  0  0
   54.0690   -9.4440   -1.7690 N   0  0  0  0  0
   54.3290   -9.8760   -0.4090 C   0  0  0  0  0
   53.2900   -9.2370    0.4630 C   0  0  0  0  0
   52.7280   -8.1950    0.1120 O   0  0  0  0  0
   55.6980   -9.3850    0.0300 C   0  0  0  0  0
   56.6260   -9.5980   -1.0130 O   0  0  0  0  0
   53.0600   -9.8480    1.6130 N   0  0  0  0  0
   52.0580   -9.3570    2.5050 C   0  0  0  0  0
   52.7080   -8.5330    3.5990 C   0  0  0  0  0
   53.6400   -8.9960    4.2770 O   0  0  0  0  0
   51.2710  -10.5200    3.0920 C   0  0  0  0  0
   50.8080  -11.3310    2.0130 O   0  0  0  0  0
   50.0420  -10.0380    3.8820 C   0  0  0  0  0
   52.1890   -7.3290    3.8110 N   0  0  0  0  0
   52.6290   -6.5460    4.9530 C   0  0  0  0  0
   52.8530   -5.1080    4.5140 C   0  0  0  0  0
   51.6660   -4.5880    3.9580 O   0  0  0  0  0
   51.6220   -6.6040    6.1050 C   0  0  0  0  0
   50.6200   -7.3020    6.0530 O   0  0  0  0  0
   51.7770   -3.1490    3.3560 P   0  0  0  0  0
   52.6050   -3.0720    2.0010 O   0  0  0  0  0
   52.3540   -2.0340    4.3080 O   0  0  0  0  0
   50.2760   -2.7570    2.9890 O   0  0  0  0  0
   51.9210   -5.8870    7.1650 N   0  0  0  0  0
   51.1320   -5.9040    8.3870 C   0  0  0  0  0
   49.7510   -5.3710    8.1380 C   0  0  0  0  0
   49.6300   -4.1630    7.8000 O   0  0  0  0  0
   51.8360   -5.0310    9.4470 C   0  0  0  0  0
   53.0530   -5.6900    9.7900 O   0  0  0  0  0
   51.1350   -5.0280   10.6660 C   0  0  0  0  0
   48.7050   -6.2140    8.3610 N   0  0  0  0  0
   47.3060   -5.7590    8.2000 C   0  0  0  0  0
   46.8460   -4.9180    9.3720 C   0  0  0  0  0
   47.4740   -4.9370   10.4110 O   0  0  0  0  0
   46.4940   -7.0520    8.2490 C   0  0  0  0  0
   47.3420   -7.9840    9.1680 C   0  0  0  0  0
   48.7930   -7.5660    8.9510 C   0  0  0  0  0
   45.7390   -4.2100    9.2240 N   0  0  0  0  0
   45.0490   -3.6620   10.3960 C   0  0  0  0  0
   44.7040   -4.7210   11.4500 C   0  0  0  0  0
   44.3470   -5.8420   11.0940 O   0  0  0  0  0
   43.7680   -3.0010    9.9470 C   0  0  0  0  0
   44.0250   -1.6870    9.2250 C   0  0  0  0  0
   44.8920   -0.9230    9.6170 O   0  0  0  0  0
   43.3180   -1.4500    8.1560 N   0  0  0  0  0
   44.7760   -4.3580   12.7370 N   0  0  0  0  0
   44.3370   -5.2810   13.8380 C   0  0  0  0  0
   42.8300   -5.7810   13.7530 C   0  0  0  0  0
   42.5910   -7.0060   13.9430 O   0  0  0  0  0
   44.8290   -4.8130   15.2890 C   0  0  0  0  0
   44.5750   -5.8760   16.3580 C   0  0  0  0  0
   46.3260   -4.4700   15.2820 C   0  0  0  0  0
   41.7950   -4.9370   13.5110 N   0  0  0  0  0
   41.6600   -3.4380   13.6710 C   0  0  0  0  0
   41.2940   -2.7150   12.3420 C   0  0  0  0  0
   40.1284   -2.7100   11.8636 O   0  0  0  0  0
   42.8770   -2.7920   14.3680 C   0  0  0  0  0
   42.6440   -1.3960   14.8760 C   0  0  0  0  0
   41.3800   -0.8680   15.0940 N   0  0  0  0  0
   43.5180   -0.4240   15.2350 C   0  0  0  0  0
   41.4870    0.3800   15.5340 C   0  0  0  0  0
   42.7740    0.6720   15.6290 N   0  0  0  0  0
   42.2039   -2.1076   11.7168 O   0  0  0  0  0
   54.0865  -10.9755   -4.8665 H   0  0  0  0  0
   52.4348  -11.0830   -5.0598 H   0  0  0  0  0
   53.3083   -9.9807   -5.9535 H   0  0  0  0  0
   53.8963   -8.7509   -4.0480 H   0  0  0  0  0
   51.3072   -8.4215   -3.2349 H   0  0  0  0  0
   51.1305   -9.1702   -4.8863 H   0  0  0  0  0
   51.2753   -7.0425   -5.6294 H   0  0  0  0  0
   53.0422   -7.2224   -5.2860 H   0  0  0  0  0
   52.2849   -5.1322   -4.3330 H   0  0  0  0  0
   52.5780   -6.3087   -2.9807 H   0  0  0  0  0
   49.8199   -5.9023   -4.0067 H   0  0  0  0  0
   50.9435   -5.1207   -0.1786 H   0  0  0  0  0
   52.1885   -5.4823   -1.3788 H   0  0  0  0  0
   48.2560   -5.4321   -2.4196 H   0  0  0  0  0
   54.6395   -8.6961   -2.1633 H   0  0  0  0  0
   54.2990  -10.9634   -0.3393 H   0  0  0  0  0
   56.0147   -9.9321    0.9179 H   0  0  0  0  0
   55.6473   -8.3212    0.2620 H   0  0  0  0  0
   57.4919   -9.2883   -0.7375 H   0  0  0  0  0
   53.6014  -10.6750    1.8647 H   0  0  0  0  0
   51.3641   -8.7183    1.9585 H   0  0  0  0  0
   51.9248  -11.0691    3.7696 H   0  0  0  0  0
   50.3079  -12.0720    2.3628 H   0  0  0  0  0
   50.3669   -9.3961    4.7009 H   0  0  0  0  0
   49.3825   -9.4778    3.2192 H   0  0  0  0  0
   49.5090  -10.8998    4.2836 H   0  0  0  0  0
   51.4845   -6.9556    3.1748 H   0  0  0  0  0
   53.5625   -6.9698    5.3232 H   0  0  0  0  0
   53.6446   -5.0789    3.7653 H   0  0  0  0  0
   53.1395   -4.5079    5.3777 H   0  0  0  0  0
   52.2817   -3.7394    1.3914 H   0  0  0  0  0
   49.9049   -3.4251    2.4081 H   0  0  0  0  0
   52.7468   -5.2893    7.1291 H   0  0  0  0  0
   51.0454   -6.9320    8.7387 H   0  0  0  0  0
   51.9351   -4.0266    9.0352 H   0  0  0  0  0
   53.5203   -5.1733   10.4505 H   0  0  0  0  0
   50.1319   -4.6327   10.5058 H   0  0  0  0  0
   51.0688   -6.0467   11.0481 H   0  0  0  0  0
   51.6628   -4.4022   11.3857 H   0  0  0  0  0
   47.1969   -5.1654    7.2924 H   0  0  0  0  0
   46.3308   -7.4791    7.2595 H   0  0  0  0  0
   45.4852   -6.8961    8.6311 H   0  0  0  0  0
   47.1889   -9.0342    8.9197 H   0  0  0  0  0
   47.0510   -7.8838   10.2137 H   0  0  0  0  0
   49.3623   -7.5696    9.8805 H   0  0  0  0  0
   49.3254   -8.2610    8.3016 H   0  0  0  0  0
   45.3634   -4.0443    8.2903 H   0  0  0  0  0
   45.7328   -2.9514   10.8603 H   0  0  0  0  0
   43.1656   -2.7912   10.8309 H   0  0  0  0  0
   43.2614   -3.6751    9.2563 H   0  0  0  0  0
   43.4808   -0.6009    7.6148 H   0  0  0  0  0
   42.6019   -2.1136    7.8607 H   0  0  0  0  0
   45.1370   -3.4342   12.9751 H   0  0  0  0  0
   44.8817   -6.2065   13.6514 H   0  0  0  0  0
   44.2463   -3.9251   15.5342 H   0  0  0  0  0
   43.5067   -6.0851   16.4141 H   0  0  0  0  0
   45.1118   -6.7879   16.0965 H   0  0  0  0  0
   44.9261   -5.5102   17.3229 H   0  0  0  0  0
   46.8976   -5.3498   14.9866 H   0  0  0  0  0
   46.5089   -3.6617   14.5740 H   0  0  0  0  0
   46.6301   -4.1559   16.2805 H   0  0  0  0  0
   40.9558   -5.3963   13.1571 H   0  0  0  0  0
   40.8125   -3.2961   14.3415 H   0  0  0  0  0
   43.6718   -2.7301   13.6246 H   0  0  0  0  0
   43.1102   -3.4098   15.2352 H   0  0  0  0  0
   44.6056   -0.4939   15.2164 H   0  0  0  0  0
   40.6595    1.0473   15.7748 H   0  0  0  0  0
   43.0321   -2.1953   12.1943 H   0  0  0  0  0
  1  2  1  0  0  0
  2  3  1  0  0  0
  2  5  1  0  0  0
  3  4  2  0  0  0
  3 12  1  0  0  0
  5  6  1  0  0  0
  6  7  1  0  0  0
  7  8  1  0  0  0
  8  9  1  0  0  0
  9 10  1  0  0  0
  9 11  2  0  0  0
 12 13  1  0  0  0
 13 14  1  0  0  0
 13 16  1  0  0  0
 14 15  2  0  0  0
 14 18  1  0  0  0
 16 17  1  0  0  0
 18 19  1  0  0  0
 19 20  1  0  0  0
 19 22  1  0  0  0
 20 21  2  0  0  0
 20 25  1  0  0  0
 22 23  1  0  0  0
 22 24  1  0  0  0
 25 26  1  0  0  0
 26 27  1  0  0  0
 26 29  1  0  0  0
 27 28  1  0  0  0
 28 31  1  0  0  0
 29 30  2  0  0  0
 29 35  1  0  0  0
 31 32  1  0  0  0
 31 33  2  0  0  0
 31 34  1  0  0  0
 35 36  1  0  0  0
 36 37  1  0  0  0
 36 39  1  0  0  0
 37 38  2  0  0  0
 37 42  1  0  0  0
 39 40  1  0  0  0
 39 41  1  0  0  0
 42 43  1  0  0  0
 42 48  1  0  0  0
 43 44  1  0  0  0
 43 46  1  0  0  0
 44 45  2  0  0  0
 44 49  1  0  0  0
 46 47  1  0  0  0
 47 48  1  0  0  0
 49 50  1  0  0  0
 50 51  1  0  0  0
 50 53  1  0  0  0
 51 52  2  0  0  0
 51 57  1  0  0  0
 53 54  1  0  0  0
 54 55  2  0  0  0
 54 56  1  0  0  0
 57 58  1  0  0  0
 58 59  1  0  0  0
 58 61  1  0  0  0
 59 60  2  0  0  0
 59 64  1  0  0  0
 61 62  1  0  0  0
 61 63  1  0  0  0
 64 65  1  0  0  0
 65 66  1  0  0  0
 65 68  1  0  0  0
 66 67  2  0  0  0
 68 69  1  0  0  0
 69 70  4  0  0  0
 69 71  4  0  0  0
 70 72  4  0  0  0
 71 73  4  0  0  0
 72 73  4  0  0  0
 66 74  1  0  0  0
  1 75  1  0  0  0
  1 76  1  0  0  0
  1 77  1  0  0  0
  2 78  1  0  0  0
  5 79  1  0  0  0
  5 80  1  0  0  0
  6 81  1  0  0  0
  6 82  1  0  0  0
  7 83  1  0  0  0
  7 84  1  0  0  0
  8 85  1  0  0  0
 10 86  1  0  0  0
 10 87  1  0  0  0
 11 88  1  0  0  0
 12 89  1  0  0  0
 13 90  1  0  0  0
 16 91  1  0  0  0
 16 92  1  0  0  0
 17 93  1  0  0  0
 18 94  1  0  0  0
 19 95  1  0  0  0
 22 96  1  0  0  0
 23 97  1  0  0  0
 24 98  1  0  0  0
 24 99  1  0  0  0
 24100  1  0  0  0
 25101  1  0  0  0
 26102  1  0  0  0
 27103  1  0  0  0
 27104  1  0  0  0
 32105  1  0  0  0
 34106  1  0  0  0
 35107  1  0  0  0
 36108  1  0  0  0
 39109  1  0  0  0
 40110  1  0  0  0
 41111  1  0  0  0
 41112  1  0  0  0
 41113  1  0  0  0
 43114  1  0  0  0
 46115  1  0  0  0
 46116  1  0  0  0
 47117  1  0  0  0
 47118  1  0  0  0
 48119  1  0  0  0
 48120  1  0  0  0
 49121  1  0  0  0
 50122  1  0  0  0
 53123  1  0  0  0
 53124  1  0  0  0
 56125  1  0  0  0
 56126  1  0  0  0
 57127  1  0  0  0
 58128  1  0  0  0
 61129  1  0  0  0
 62130  1  0  0  0
 62131  1  0  0  0
 62132  1  0  0  0
 63133  1  0  0  0
 63134  1  0  0  0
 63135  1  0  0  0
 64136  1  0  0  0
 65137  1  0  0  0
 68138  1  0  0  0
 68139  1  0  0  0
 71140  1  0  0  0
 72141  1  0  0  0
 74142  1  0  0  0
M  END
$$$$
