3od0_ligand
  -I-interpret- 

 34 37  0  0  0  0  0  0  0  0999 V2000
    3.0270  -34.2670   27.3260 P   0  0  0  0  0
    4.3660  -33.6020   27.1110 O   0  0  0  0  0
    1.7570  -33.4760   27.4790 O   0  0  0  0  0
    3.1190  -35.0840   28.7010 O   0  0  0  0  0
    2.2030  -36.1400   28.9620 C   0  0  0  0  0
    2.2780  -37.0550   27.7620 C   0  0  0  0  0
    1.4170  -38.1800   27.8410 O   0  0  0  0  0
    1.7890  -36.3570   26.5200 C   0  0  0  0  0
    2.7620  -35.3780   26.1890 O   0  0  0  0  0
    1.5860  -37.5250   25.5690 C   0  0  0  0  0
    2.7740  -37.7880   24.8250 O   0  0  0  0  0
    1.2820  -38.6880   26.5090 C   0  0  0  0  0
   -0.0960  -39.2000   26.3080 N   0  0  0  0  0
   -0.4950  -40.4330   25.9170 C   0  0  0  0  0
   -1.8520  -40.5430   25.8510 N   0  0  0  0  0
   -2.3390  -39.3410   26.2130 C   0  0  0  0  0
   -3.6820  -38.7300   26.3590 C   0  0  0  0  0
   -4.7050  -39.4110   26.1170 O   0  0  0  0  0
   -3.7460  -37.4450   26.7610 N   0  0  0  0  0
   -2.6390  -36.6990   27.0290 C   0  0  0  0  0
   -2.7520  -35.4040   27.4310 N   0  0  0  0  0
   -1.3830  -37.1950   26.9180 N   0  0  0  0  0
   -1.1830  -38.4750   26.5270 C   0  0  0  0  0
    5.0477  -34.2740   27.0377 H   0  0  0  0  0
    1.1918  -35.7608   29.1092 H   0  0  0  0  0
    2.4580  -36.6685   29.8805 H   0  0  0  0  0
    3.3269  -37.3502   27.7349 H   0  0  0  0  0
    0.8625  -35.7839   26.5563 H   0  0  0  0  0
    0.8023  -37.3432   24.8336 H   0  0  0  0  0
    2.6220  -38.5280   24.2326 H   0  0  0  0  0
    1.9639  -39.5165   26.3172 H   0  0  0  0  0
    0.1915  -41.2462   25.6815 H   0  0  0  0  0
   -3.6743  -34.9809   27.5348 H   0  0  0  0  0
   -0.5827  -36.5995   27.1306 H   0  0  0  0  0
  1  2  1  0  0  0
  1  3  2  0  0  0
  1  4  1  0  0  0
  1  9  1  0  0  0
  4  5  1  0  0  0
  5  6  1  0  0  0
  6  7  1  0  0  0
  6  8  1  0  0  0
  7 12  1  0  0  0
  8  9  1  0  0  0
  8 10  1  0  0  0
 10 11  1  0  0  0
 10 12  1  0  0  0
 12 13  1  0  0  0
 13 14  4  0  0  0
 13 23  4  0  0  0
 14 15  4  0  0  0
 15 16  4  0  0  0
 16 17  1  0  0  0
 16 23  4  0  0  0
 17 18  2  0  0  0
 17 19  1  0  0  0
 19 20  4  0  0  0
 20 21  2  0  0  0
 20 22  1  0  0  0
 22 23  1  0  0  0
  2 24  1  0  0  0
  5 25  1  0  0  0
  5 26  1  0  0  0
  6 27  1  0  0  0
  8 28  1  0  0  0
 10 29  1  0  0  0
 11 30  1  0  0  0
 12 31  1  0  0  0
 14 32  1  0  0  0
 21 33  1  0  0  0
 22 34  1  0  0  0
M  END
$$$$
