3okp_ligand
  -I-interpret- 

 42 44  0  0  0  0  0  0  0  0999 V2000
   11.8370    7.0740   16.7210 N   0  0  0  0  0
   10.4970    7.1680   16.9030 C   0  0  0  0  0
    9.6630    7.0400   15.8430 N   0  0  0  0  0
   10.0030    7.3910   18.1430 N   0  0  0  0  0
    8.6620    7.4900   18.3420 C   0  0  0  0  0
    7.7940    7.3590   17.2690 C   0  0  0  0  0
    8.3200    7.1310   16.0020 C   0  0  0  0  0
    7.5640    7.0080   15.0160 O   0  0  0  0  0
    6.5400    7.4950   17.7460 N   0  0  0  0  0
    6.6290    7.7030   19.0800 C   0  0  0  0  0
    7.9230    7.6970   19.4370 N   0  0  0  0  0
    8.4810    7.8940   20.8000 C   0  0  0  0  0
    8.3080    9.3370   21.2470 C   0  0  0  0  0
    9.3640   10.1720   20.7650 O   0  0  0  0  0
    8.2970    9.2220   22.7580 C   0  0  0  0  0
    9.6240    9.3690   23.2770 O   0  0  0  0  0
    7.7840    7.8130   23.0410 C   0  0  0  0  0
    7.8250    7.1030   21.7960 O   0  0  0  0  0
    6.3550    7.8270   23.5810 C   0  0  0  0  0
    6.3480    7.8130   25.0110 O   0  0  0  0  0
    5.2290    8.3180   25.7850 P   0  0  0  0  0
    5.5670    8.3970   26.9870 O   0  0  0  0  0
    4.9060    9.4650   25.3870 O   0  0  0  0  0
    4.0730    7.4490   25.6640 O   0  0  0  0  0
    4.0820    6.0160   25.9070 P   0  0  0  0  0
    4.8450    5.7210   26.8520 O   0  0  0  0  0
    2.9220    5.6450   26.1870 O   0  0  0  0  0
    4.4980    5.3200   24.7140 O   0  0  0  0  0
   12.2145    6.9074   15.7882 H   0  0  0  0  0
   10.6409    7.4854   18.9333 H   0  0  0  0  0
    5.7864    7.8514   19.7554 H   0  0  0  0  0
    9.5282    7.6026   20.7197 H   0  0  0  0  0
    7.4059    9.8077   20.8562 H   0  0  0  0  0
    9.2213   11.0723   21.0661 H   0  0  0  0  0
    7.6799    9.9913   23.2221 H   0  0  0  0  0
    9.6023    9.2941   24.2338 H   0  0  0  0  0
    8.4037    7.3380   23.8016 H   0  0  0  0  0
    5.8357    6.9393   23.2198 H   0  0  0  0  0
    5.8600    8.7354   23.2375 H   0  0  0  0  0
    4.6437    9.4203   24.4646 H   0  0  0  0  0
    5.7378    6.0042   26.6413 H   0  0  0  0  0
    5.3889    5.5912   24.4809 H   0  0  0  0  0
  1  2  2  0  0  0
  2  3  4  0  0  0
  2  4  1  0  0  0
  3  7  1  0  0  0
  4  5  1  0  0  0
  5  6  4  0  0  0
  5 11  4  0  0  0
  6  7  1  0  0  0
  6  9  4  0  0  0
  7  8  2  0  0  0
  9 10  4  0  0  0
 10 11  4  0  0  0
 11 12  1  0  0  0
 12 13  1  0  0  0
 12 18  1  0  0  0
 13 14  1  0  0  0
 13 15  1  0  0  0
 15 16  1  0  0  0
 15 17  1  0  0  0
 17 18  1  0  0  0
 17 19  1  0  0  0
 19 20  1  0  0  0
 20 21  1  0  0  0
 21 22  2  0  0  0
 21 23  1  0  0  0
 21 24  1  0  0  0
 24 25  1  0  0  0
 25 26  1  0  0  0
 25 27  2  0  0  0
 25 28  1  0  0  0
  1 29  1  0  0  0
  4 30  1  0  0  0
 10 31  1  0  0  0
 12 32  1  0  0  0
 13 33  1  0  0  0
 14 34  1  0  0  0
 15 35  1  0  0  0
 16 36  1  0  0  0
 17 37  1  0  0  0
 19 38  1  0  0  0
 19 39  1  0  0  0
 23 40  1  0  0  0
 26 41  1  0  0  0
 28 42  1  0  0  0
M  END
$$$$
