3ozg_ligand
  -I-interpret- 

 38 39  0  0  0  0  0  0  0  0999 V2000
   65.7260   35.7830   71.4690 P   0  0  0  0  0
   64.4740   37.4540   80.4880 N   0  0  0  0  0
   63.3060   36.8340   80.2540 C   0  0  0  0  0
   63.0160   36.2470   79.0900 N   0  0  0  0  0
   63.9470   36.2890   78.1100 C   0  0  0  0  0
   65.2460   36.9460   78.2820 C   0  0  0  0  0
   65.4750   37.5640   79.6040 C   0  0  0  0  0
   66.5660   38.1620   79.8780 O   0  0  0  0  0
   65.9200   36.8070   77.1280 N   0  0  0  0  0
   65.1680   36.0890   76.2310 C   0  0  0  0  0
   63.9170   35.7300   76.7400 C   0  0  0  0  0
   62.8070   34.9170   76.0880 C   0  0  0  0  0
   65.1000   34.6660   70.6430 O   0  0  0  0  0
   66.3680   36.8810   70.6700 O   0  0  0  0  0
   61.2720   36.6510   73.0790 C   0  0  0  0  0
   60.1080   37.0790   73.8070 O   0  0  0  0  0
   66.6050   35.3450   72.6090 O   0  0  0  0  0
   62.4480   36.3670   74.0060 C   0  0  0  0  0
   61.9480   35.6070   75.1490 N   0  3  0  0  0
   63.5530   35.6340   73.2260 C   0  0  0  0  0
   64.3020   36.5820   72.2800 C   0  0  0  0  0
   64.6094   37.8728   81.4081 H   0  0  0  0  0
   62.5614   36.8087   81.0496 H   0  0  0  0  0
   65.5100   35.8272   75.2297 H   0  0  0  0  0
   62.1579   34.5948   76.9022 H   0  0  0  0  0
   63.3082   34.1376   75.5140 H   0  0  0  0  0
   64.7156   34.0117   71.2309 H   0  0  0  0  0
   61.5604   37.4491   72.3950 H   0  0  0  0  0
   61.0248   35.7316   72.5483 H   0  0  0  0  0
   59.3910   37.2476   73.1913 H   0  0  0  0  0
   66.1673   34.6446   73.0983 H   0  0  0  0  0
   62.8966   37.2859   74.3834 H   0  0  0  0  0
   61.5091   36.3246   75.7259 H   0  0  0  0  0
   61.4326   34.8449   74.7086 H   0  0  0  0  0
   63.0896   34.8481   72.6295 H   0  0  0  0  0
   64.2673   35.2271   73.9418 H   0  0  0  0  0
   63.6068   36.8978   71.5021 H   0  0  0  0  0
   64.6779   37.4173   72.8708 H   0  0  0  0  0
  1 13  1  0  0  0
  1 14  2  0  0  0
  1 17  1  0  0  0
 21  1  1  0  0  0
  3  2  1  0  0  0
  7  2  1  0  0  0
  4  3  2  0  0  0
  5  4  1  0  0  0
  5  6  4  0  0  0
 11  5  4  0  0  0
  6  7  1  0  0  0
  9  6  4  0  0  0
  7  8  2  0  0  0
 10  9  4  0  0  0
 11 10  4  0  0  0
 12 11  1  0  0  0
 19 12  1  0  0  0
 15 16  1  0  0  0
 18 15  1  0  0  0
 18 19  1  0  0  0
 20 18  1  0  0  0
 20 21  1  0  0  0
  2 22  1  0  0  0
  3 23  1  0  0  0
 10 24  1  0  0  0
 12 25  1  0  0  0
 12 26  1  0  0  0
 13 27  1  0  0  0
 15 28  1  0  0  0
 15 29  1  0  0  0
 16 30  1  0  0  0
 17 31  1  0  0  0
 18 32  1  0  0  0
 19 33  1  0  0  0
 19 34  1  0  0  0
 20 35  1  0  0  0
 20 36  1  0  0  0
 21 37  1  0  0  0
 21 38  1  0  0  0
M  END
$$$$
