3q72_ligand
  -I-interpret- 

 48 50  0  0  0  0  0  0  0  0999 V2000
   -5.1250   -3.0910   -0.9780 P   0  0  0  0  0
   -4.1650   -2.8370    0.1660 O   0  0  0  0  0
   -6.5440   -3.2810   -0.5090 O   0  0  0  0  0
   -4.5360   -4.2360   -1.7610 O   0  0  0  0  0
   -5.1500   -1.8640   -2.0010 N   0  0  0  0  0
   -3.8800   -1.1130   -2.6210 P   0  0  0  0  0
   -3.3110   -0.1630   -1.6390 O   0  0  0  0  0
   -2.9370   -2.1020   -3.1550 O   0  0  0  0  0
   -4.4050   -0.2300   -3.7510 O   0  0  0  0  0
   -4.4130   -0.5120   -5.2550 P   0  0  0  0  0
   -4.9390   -1.8740   -5.4650 O   0  0  0  0  0
   -3.1260   -0.1570   -5.8690 O   0  0  0  0  0
   -5.4510    0.4920   -5.8510 O   0  0  0  0  0
   -6.7550    0.5460   -5.3190 C   0  0  0  0  0
   -7.6960    1.1200   -6.3600 C   0  0  0  0  0
   -7.4160    2.5390   -6.5210 O   0  0  0  0  0
   -7.5410    0.4870   -7.7330 C   0  0  0  0  0
   -8.8370    0.1900   -8.2500 O   0  0  0  0  0
   -6.7480    1.5250   -8.5480 C   0  0  0  0  0
   -7.0940    1.6180   -9.9230 O   0  0  0  0  0
   -7.0780    2.8470   -7.8580 C   0  0  0  0  0
   -5.9770    3.8120   -7.8500 N   0  0  0  0  0
   -4.7150    3.6330   -7.3470 C   0  0  0  0  0
   -3.9520    4.6770   -7.4890 N   0  0  0  0  0
   -4.7520    5.6080   -8.1280 C   0  0  0  0  0
   -4.4670    6.9310   -8.5420 C   0  0  0  0  0
   -3.4180    7.5670   -8.4240 O   0  0  0  0  0
   -5.5530    7.5240   -9.1600 N   0  0  0  0  0
   -6.7670    6.9130   -9.3520 C   0  0  0  0  0
   -7.7060    7.6380   -9.9710 N   0  0  0  0  0
   -7.0500    5.6800   -8.9630 N   0  0  0  0  0
   -6.0000    5.0860   -8.3600 C   0  0  0  0  0
   -3.2775   -2.7229   -0.1818 H   0  0  0  0  0
   -3.6352   -4.0200   -2.0129 H   0  0  0  0  0
   -6.0682   -1.5250   -2.2880 H   0  0  0  0  0
   -3.9965    0.4422   -1.3467 H   0  0  0  0  0
   -5.7797   -1.9648   -5.0105 H   0  0  0  0  0
   -6.7617    1.1791   -4.4317 H   0  0  0  0  0
   -7.0803   -0.4580   -5.0464 H   0  0  0  0  0
   -8.7051    0.9215   -5.9989 H   0  0  0  0  0
   -7.0075   -0.4634   -7.7455 H   0  0  0  0  0
   -8.7499   -0.2107   -9.1180 H   0  0  0  0  0
   -5.6941    1.2473   -8.5625 H   0  0  0  0  0
   -6.5495    2.2871  -10.3443 H   0  0  0  0  0
   -7.8883    3.3188   -8.4137 H   0  0  0  0  0
   -4.3835    2.7081   -6.8750 H   0  0  0  0  0
   -7.4992    8.5905  -10.2716 H   0  0  0  0  0
   -7.9555    5.2318   -9.1028 H   0  0  0  0  0
  1  2  1  0  0  0
  1  3  2  0  0  0
  1  4  1  0  0  0
  1  5  1  0  0  0
  5  6  1  0  0  0
  6  7  1  0  0  0
  6  8  2  0  0  0
  6  9  1  0  0  0
  9 10  1  0  0  0
 10 11  1  0  0  0
 10 12  2  0  0  0
 10 13  1  0  0  0
 13 14  1  0  0  0
 14 15  1  0  0  0
 15 16  1  0  0  0
 15 17  1  0  0  0
 16 21  1  0  0  0
 17 18  1  0  0  0
 17 19  1  0  0  0
 19 20  1  0  0  0
 19 21  1  0  0  0
 21 22  1  0  0  0
 22 23  4  0  0  0
 22 32  4  0  0  0
 23 24  4  0  0  0
 24 25  4  0  0  0
 25 26  1  0  0  0
 25 32  4  0  0  0
 26 27  2  0  0  0
 26 28  1  0  0  0
 28 29  4  0  0  0
 29 30  2  0  0  0
 29 31  1  0  0  0
 31 32  1  0  0  0
  2 33  1  0  0  0
  4 34  1  0  0  0
  5 35  1  0  0  0
  7 36  1  0  0  0
 11 37  1  0  0  0
 14 38  1  0  0  0
 14 39  1  0  0  0
 15 40  1  0  0  0
 17 41  1  0  0  0
 18 42  1  0  0  0
 19 43  1  0  0  0
 20 44  1  0  0  0
 21 45  1  0  0  0
 23 46  1  0  0  0
 30 47  1  0  0  0
 31 48  1  0  0  0
M  END
$$$$
