3q7p_ligand
  -I-interpret- 

 48 50  0  0  0  0  0  0  0  0999 V2000
   -5.4190   -2.4040    1.2440 P   0  0  0  0  0
   -4.7080   -2.0810   -0.0550 O   0  0  0  0  0
   -6.6960   -3.1790    1.0720 O   0  0  0  0  0
   -5.5480   -1.1020    2.0010 O   0  0  0  0  0
   -4.4770   -3.3270    2.1350 N   0  0  0  0  0
   -3.1280   -2.7640    2.7450 P   0  0  0  0  0
   -2.0440   -2.8330    1.7440 O   0  0  0  0  0
   -3.4530   -1.4500    3.3450 O   0  0  0  0  0
   -2.6560   -3.7040    3.8500 O   0  0  0  0  0
   -2.9570   -3.5330    5.3390 P   0  0  0  0  0
   -4.4110   -3.2810    5.4800 O   0  0  0  0  0
   -2.0110   -2.5700    5.9380 O   0  0  0  0  0
   -2.6720   -4.9390    5.9940 O   0  0  0  0  0
   -3.1800   -6.1440    5.4230 C   0  0  0  0  0
   -3.1010   -7.2710    6.4410 C   0  0  0  0  0
   -1.7240   -7.7360    6.5650 O   0  0  0  0  0
   -3.5370   -6.8880    7.8540 C   0  0  0  0  0
   -4.1600   -7.9970    8.4870 O   0  0  0  0  0
   -2.2140   -6.5550    8.5370 C   0  0  0  0  0
   -2.2460   -6.7750    9.9310 O   0  0  0  0  0
   -1.2560   -7.5460    7.8900 C   0  0  0  0  0
    0.1290   -7.0710    7.8670 N   0  0  0  0  0
    0.5760   -5.8510    7.4180 C   0  0  0  0  0
    1.8670   -5.6920    7.5480 N   0  0  0  0  0
    2.3130   -6.8740    8.1260 C   0  0  0  0  0
    3.6240   -7.2850    8.4990 C   0  0  0  0  0
    4.6980   -6.6790    8.3760 O   0  0  0  0  0
    3.6290   -8.5570    9.0580 N   0  0  0  0  0
    2.5100   -9.3250    9.2510 C   0  0  0  0  0
    2.7180  -10.5130    9.8350 N   0  0  0  0  0
    1.2820   -8.9670    8.8850 N   0  0  0  0  0
    1.2520   -7.7330    8.3300 C   0  0  0  0  0
   -3.9063   -1.5881    0.1343 H   0  0  0  0  0
   -4.6873   -0.6809    2.0601 H   0  0  0  0  0
   -4.7457   -4.2943    2.3157 H   0  0  0  0  0
   -4.1712   -1.5552    3.9732 H   0  0  0  0  0
   -4.9000   -3.9833    5.0450 H   0  0  0  0  0
   -2.5850   -6.4066    4.5483 H   0  0  0  0  0
   -4.2197   -5.9941    5.1319 H   0  0  0  0  0
   -3.7841   -8.0289    6.0574 H   0  0  0  0  0
   -4.2560   -6.0694    7.8861 H   0  0  0  0  0
   -4.4305   -7.7475    9.3737 H   0  0  0  0  0
   -1.9469   -5.5048    8.4192 H   0  0  0  0  0
   -1.3925   -6.5507   10.3089 H   0  0  0  0  0
   -1.2413   -8.4705    8.4672 H   0  0  0  0  0
   -0.0813   -5.0911    6.9953 H   0  0  0  0  0
    3.6619  -10.7910   10.1035 H   0  0  0  0  0
    0.4578   -9.5550    9.0085 H   0  0  0  0  0
  1  2  1  0  0  0
  1  3  2  0  0  0
  1  4  1  0  0  0
  1  5  1  0  0  0
  5  6  1  0  0  0
  6  7  2  0  0  0
  6  8  1  0  0  0
  6  9  1  0  0  0
  9 10  1  0  0  0
 10 11  1  0  0  0
 10 12  2  0  0  0
 10 13  1  0  0  0
 13 14  1  0  0  0
 14 15  1  0  0  0
 15 16  1  0  0  0
 15 17  1  0  0  0
 16 21  1  0  0  0
 17 18  1  0  0  0
 17 19  1  0  0  0
 19 20  1  0  0  0
 19 21  1  0  0  0
 21 22  1  0  0  0
 22 23  4  0  0  0
 22 32  4  0  0  0
 23 24  4  0  0  0
 24 25  4  0  0  0
 25 26  1  0  0  0
 25 32  4  0  0  0
 26 27  2  0  0  0
 26 28  1  0  0  0
 28 29  4  0  0  0
 29 30  2  0  0  0
 29 31  1  0  0  0
 31 32  1  0  0  0
  2 33  1  0  0  0
  4 34  1  0  0  0
  5 35  1  0  0  0
  8 36  1  0  0  0
 11 37  1  0  0  0
 14 38  1  0  0  0
 14 39  1  0  0  0
 15 40  1  0  0  0
 17 41  1  0  0  0
 18 42  1  0  0  0
 19 43  1  0  0  0
 20 44  1  0  0  0
 21 45  1  0  0  0
 23 46  1  0  0  0
 30 47  1  0  0  0
 31 48  1  0  0  0
M  END
$$$$
