3q7q_ligand
  -I-interpret- 

 48 50  0  0  0  0  0  0  0  0999 V2000
   -4.3560  -16.0850    1.3970 P   0  0  0  0  0
   -3.8420  -16.0280   -0.0230 O   0  0  0  0  0
   -5.5150  -17.0220    1.6390 O   0  0  0  0  0
   -4.6200  -14.6500    1.7440 O   0  0  0  0  0
   -3.2080  -16.6010    2.3660 N   0  0  0  0  0
   -2.0110  -15.7160    2.9180 P   0  0  0  0  0
   -0.9220  -15.6540    1.9160 O   0  0  0  0  0
   -2.5470  -14.4370    3.4370 O   0  0  0  0  0
   -1.4510  -16.4650    4.1160 O   0  0  0  0  0
   -1.8920  -16.1360    5.5330 P   0  0  0  0  0
   -3.3660  -16.0170    5.5190 O   0  0  0  0  0
   -1.1170  -15.0010    6.0720 O   0  0  0  0  0
   -1.5460  -17.4090    6.3920 O   0  0  0  0  0
   -2.0170  -18.6720    5.9580 C   0  0  0  0  0
   -1.8550  -19.7210    7.0420 C   0  0  0  0  0
   -0.4510  -20.0430    7.1910 O   0  0  0  0  0
   -2.3420  -19.3130    8.4280 C   0  0  0  0  0
   -2.9020  -20.4330    9.0940 O   0  0  0  0  0
   -1.0680  -18.8660    9.1290 C   0  0  0  0  0
   -1.1580  -19.0340   10.5320 O   0  0  0  0  0
   -0.0630  -19.8440    8.5350 C   0  0  0  0  0
    1.3110  -19.3540    8.5370 N   0  0  0  0  0
    1.7860  -18.1880    7.9890 C   0  0  0  0  0
    3.0720  -18.0340    8.1510 N   0  0  0  0  0
    3.4740  -19.1690    8.8470 C   0  0  0  0  0
    4.7510  -19.5660    9.3090 C   0  0  0  0  0
    5.8290  -18.9690    9.1930 O   0  0  0  0  0
    4.7020  -20.7950    9.9640 N   0  0  0  0  0
    3.5630  -21.5430   10.1540 C   0  0  0  0  0
    3.7040  -22.7000   10.8130 N   0  0  0  0  0
    2.3620  -21.1850    9.7300 N   0  0  0  0  0
    2.3960  -19.9910    9.0900 C   0  0  0  0  0
   -3.6458  -16.9172   -0.3271 H   0  0  0  0  0
   -5.2609  -17.9141    1.3916 H   0  0  0  0  0
   -3.2426  -17.5781    2.6566 H   0  0  0  0  0
   -0.6686  -16.5453    1.6649 H   0  0  0  0  0
   -3.7469  -16.8159    5.1471 H   0  0  0  0  0
   -1.4370  -18.9790    5.0877 H   0  0  0  0  0
   -3.0760  -18.5835    5.7154 H   0  0  0  0  0
   -2.4703  -20.5553    6.7052 H   0  0  0  0  0
   -3.1119  -18.5417    8.4065 H   0  0  0  0  0
   -3.2057  -20.1670    9.9650 H   0  0  0  0  0
   -0.8271  -17.8122    8.9890 H   0  0  0  0  0
   -0.3397  -18.7430   10.9411 H   0  0  0  0  0
   -0.0710  -20.7501    9.1408 H   0  0  0  0  0
    1.1543  -17.4656    7.4721 H   0  0  0  0  0
    4.6238  -22.9880   11.1468 H   0  0  0  0  0
    1.5163  -21.7384    9.8676 H   0  0  0  0  0
  1  2  1  0  0  0
  1  3  1  0  0  0
  1  4  2  0  0  0
  1  5  1  0  0  0
  5  6  1  0  0  0
  6  7  1  0  0  0
  6  8  2  0  0  0
  6  9  1  0  0  0
  9 10  1  0  0  0
 10 11  1  0  0  0
 10 12  2  0  0  0
 10 13  1  0  0  0
 13 14  1  0  0  0
 14 15  1  0  0  0
 15 16  1  0  0  0
 15 17  1  0  0  0
 16 21  1  0  0  0
 17 18  1  0  0  0
 17 19  1  0  0  0
 19 20  1  0  0  0
 19 21  1  0  0  0
 21 22  1  0  0  0
 22 23  4  0  0  0
 22 32  4  0  0  0
 23 24  4  0  0  0
 24 25  4  0  0  0
 25 26  1  0  0  0
 25 32  4  0  0  0
 26 27  2  0  0  0
 26 28  1  0  0  0
 28 29  4  0  0  0
 29 30  2  0  0  0
 29 31  1  0  0  0
 31 32  1  0  0  0
  2 33  1  0  0  0
  3 34  1  0  0  0
  5 35  1  0  0  0
  7 36  1  0  0  0
 11 37  1  0  0  0
 14 38  1  0  0  0
 14 39  1  0  0  0
 15 40  1  0  0  0
 17 41  1  0  0  0
 18 42  1  0  0  0
 19 43  1  0  0  0
 20 44  1  0  0  0
 21 45  1  0  0  0
 23 46  1  0  0  0
 30 47  1  0  0  0
 31 48  1  0  0  0
M  END
$$$$
