3qyy_ligand
  -I-interpret- 

 68 74  0  0  0  0  0  0  0  0999 V2000
   66.7230   25.1930   44.4860 P   0  0  0  0  0
   66.2450   24.9050   45.8830 O   0  0  0  0  0
   65.6480   25.3720   43.4520 O   0  0  0  0  0
   67.5990   26.5080   44.4360 O   0  0  0  0  0
   68.1470   26.9600   43.1810 C   0  0  0  0  0
   68.9550   28.2170   43.4860 C   0  0  0  0  0
   68.2450   29.2580   44.1340 O   0  0  0  0  0
   70.1490   27.9170   44.3890 C   0  0  0  0  0
   71.2480   27.4100   43.6300 O   0  0  0  0  0
   70.3720   29.2500   45.0300 C   0  0  0  0  0
   71.2830   29.9990   44.2080 O   0  0  0  0  0
   69.0220   29.9440   45.1130 C   0  0  0  0  0
   68.4190   29.7450   46.4570 N   0  0  0  0  0
   67.3260   29.0080   46.7500 C   0  0  0  0  0
   67.0370   29.0510   48.0670 N   0  0  0  0  0
   67.9450   29.8310   48.6430 C   0  0  0  0  0
   68.2160   30.3130   50.0220 C   0  0  0  0  0
   67.4710   29.9700   50.9730 O   0  0  0  0  0
   69.2770   31.1350   50.2260 N   0  0  0  0  0
   70.0970   31.5280   49.2140 C   0  0  0  0  0
   71.1320   32.3460   49.4850 N   0  0  0  0  0
   69.9040   31.1150   47.9110 N   0  0  0  0  0
   68.8640   30.2850   47.5820 C   0  0  0  0  0
   72.1450   26.3440   44.4360 P   0  0  0  0  0
   72.6260   26.9380   45.7190 O   0  0  0  0  0
   73.2460   26.0000   43.4950 O   0  0  0  0  0
   71.2940   25.0510   44.7360 O   0  0  0  0  0
   70.7590   24.3230   43.6300 C   0  0  0  0  0
   69.9580   23.1570   44.1230 C   0  0  0  0  0
   70.6760   22.2850   45.0380 O   0  0  0  0  0
   68.6810   23.5510   44.8640 C   0  0  0  0  0
   67.6180   23.9370   43.9700 O   0  0  0  0  0
   68.4010   22.2960   45.6320 C   0  0  0  0  0
   67.6190   21.4150   44.8080 O   0  0  0  0  0
   69.7570   21.6980   45.9680 C   0  0  0  0  0
   70.1000   21.9680   47.3830 N   0  0  0  0  0
   70.7470   23.0380   47.9080 C   0  0  0  0  0
   70.8700   22.9190   49.2520 N   0  0  0  0  0
   70.2950   21.7560   49.6040 C   0  0  0  0  0
   70.0610   20.9930   50.8620 C   0  0  0  0  0
   70.4460   21.4190   51.9650 O   0  0  0  0  0
   69.4090   19.8000   50.7850 N   0  0  0  0  0
   68.9650   19.2810   49.5980 C   0  0  0  0  0
   68.3210   18.0870   49.5930 N   0  0  0  0  0
   69.1510   19.9340   48.4130 N   0  0  0  0  0
   69.7960   21.1480   48.3650 C   0  0  0  0  0
   67.0020   24.8078   46.4653 H   0  0  0  0  0
   67.3541   27.1714   42.4635 H   0  0  0  0  0
   68.7766   26.1919   42.7319 H   0  0  0  0  0
   69.2468   28.5524   42.4908 H   0  0  0  0  0
   70.0031   27.1328   45.1319 H   0  0  0  0  0
   70.7982   29.1587   46.0291 H   0  0  0  0  0
   71.4376   30.8591   44.6054 H   0  0  0  0  0
   69.0849   31.0198   44.9494 H   0  0  0  0  0
   66.7491   28.4481   46.0140 H   0  0  0  0  0
   71.2941   32.6640   50.4405 H   0  0  0  0  0
   70.5442   31.4319   47.1829 H   0  0  0  0  0
   71.8731   27.1371   46.2803 H   0  0  0  0  0
   71.5785   23.9587   43.0105 H   0  0  0  0  0
   70.1140   24.9801   43.0466 H   0  0  0  0  0
   69.7291   22.6394   43.1914 H   0  0  0  0  0
   68.7755   24.4342   45.4958 H   0  0  0  0  0
   67.8350   22.4741   46.5464 H   0  0  0  0  0
   67.4339   20.6066   45.2916 H   0  0  0  0  0
   69.7785   20.6123   45.8737 H   0  0  0  0  0
   71.1186   23.8815   47.3261 H   0  0  0  0  0
   68.1714   17.5845   50.4680 H   0  0  0  0  0
   68.8060   19.5147   47.5495 H   0  0  0  0  0
  1  2  1  0  0  0
  1  3  2  0  0  0
  1  4  1  0  0  0
  1 32  1  0  0  0
  4  5  1  0  0  0
  5  6  1  0  0  0
  6  7  1  0  0  0
  6  8  1  0  0  0
  7 12  1  0  0  0
  8  9  1  0  0  0
  8 10  1  0  0  0
  9 24  1  0  0  0
 10 11  1  0  0  0
 10 12  1  0  0  0
 12 13  1  0  0  0
 13 14  4  0  0  0
 13 23  4  0  0  0
 14 15  4  0  0  0
 15 16  4  0  0  0
 16 17  1  0  0  0
 16 23  4  0  0  0
 17 18  2  0  0  0
 17 19  1  0  0  0
 19 20  4  0  0  0
 20 21  2  0  0  0
 20 22  1  0  0  0
 22 23  1  0  0  0
 24 25  1  0  0  0
 24 26  2  0  0  0
 24 27  1  0  0  0
 27 28  1  0  0  0
 28 29  1  0  0  0
 29 30  1  0  0  0
 29 31  1  0  0  0
 30 35  1  0  0  0
 31 32  1  0  0  0
 31 33  1  0  0  0
 33 34  1  0  0  0
 33 35  1  0  0  0
 35 36  1  0  0  0
 36 37  4  0  0  0
 36 46  4  0  0  0
 37 38  4  0  0  0
 38 39  4  0  0  0
 39 40  1  0  0  0
 39 46  4  0  0  0
 40 41  2  0  0  0
 40 42  1  0  0  0
 42 43  4  0  0  0
 43 44  2  0  0  0
 43 45  1  0  0  0
 45 46  1  0  0  0
  2 47  1  0  0  0
  5 48  1  0  0  0
  5 49  1  0  0  0
  6 50  1  0  0  0
  8 51  1  0  0  0
 10 52  1  0  0  0
 11 53  1  0  0  0
 12 54  1  0  0  0
 14 55  1  0  0  0
 21 56  1  0  0  0
 22 57  1  0  0  0
 25 58  1  0  0  0
 28 59  1  0  0  0
 28 60  1  0  0  0
 29 61  1  0  0  0
 31 62  1  0  0  0
 33 63  1  0  0  0
 34 64  1  0  0  0
 35 65  1  0  0  0
 37 66  1  0  0  0
 44 67  1  0  0  0
 45 68  1  0  0  0
M  END
$$$$
