3rl3_ligand
  -I-interpret- 

 37 39  0  0  0  0  0  0  0  0999 V2000
  -24.0770   10.5650    7.1860 P   0  0  0  0  0
  -22.7100    9.9540    7.2740 O   0  0  0  0  0
  -24.7920   10.7370    8.6110 O   0  0  0  0  0
  -23.9890   11.9630    6.4880 O   0  0  0  0  0
  -25.0070    9.6110    6.2800 O   0  0  0  0  0
  -26.4230    9.8170    6.2150 C   0  0  0  0  0
  -27.0050    8.9770    5.0420 C   0  0  0  0  0
  -26.2170    9.2600    3.8430 O   0  0  0  0  0
  -26.8670    7.4600    5.1470 C   0  0  0  0  0
  -27.9090    6.9560    5.9520 O   0  0  0  0  0
  -27.0420    7.0410    3.6870 C   0  0  0  0  0
  -28.3950    7.2380    3.2210 O   0  0  0  0  0
  -26.1580    8.0840    3.0180 C   0  0  0  0  0
  -24.7930    7.5330    2.9240 N   0  0  0  0  0
  -23.8410    7.4910    3.8640 C   0  0  0  0  0
  -22.7460    6.9020    3.3570 N   0  0  0  0  0
  -23.0140    6.5560    2.0950 C   0  0  0  0  0
  -22.2880    5.9210    1.0910 C   0  0  0  0  0
  -21.1260    5.5560    1.2750 O   0  0  0  0  0
  -22.8910    5.7230   -0.1520 N   0  0  0  0  0
  -24.2070    6.1550   -0.3530 C   0  0  0  0  0
  -24.8030    5.9860   -1.5260 N   0  0  0  0  0
  -24.8790    6.7570    0.6350 N   0  0  0  0  0
  -24.3110    6.9650    1.8270 C   0  0  0  0  0
  -25.6586   11.1311    8.4874 H   0  0  0  0  0
  -24.8665   12.3486    6.4347 H   0  0  0  0  0
  -26.6330   10.8737    6.0494 H   0  0  0  0  0
  -26.8827    9.5056    7.1530 H   0  0  0  0  0
  -28.0601    9.2505    5.0390 H   0  0  0  0  0
  -25.9382    7.1038    5.5925 H   0  0  0  0  0
  -27.8260    6.0021    6.0207 H   0  0  0  0  0
  -26.8108    5.9919    3.5024 H   0  0  0  0  0
  -28.4595    6.9631    2.3035 H   0  0  0  0  0
  -26.4807    8.3399    2.0088 H   0  0  0  0  0
  -23.9391    7.8741    4.8797 H   0  0  0  0  0
  -24.3018    5.5373   -2.2927 H   0  0  0  0  0
  -25.8393    7.0619    0.4762 H   0  0  0  0  0
  1  2  2  0  0  0
  1  3  1  0  0  0
  1  4  1  0  0  0
  1  5  1  0  0  0
  5  6  1  0  0  0
  6  7  1  0  0  0
  7  8  1  0  0  0
  7  9  1  0  0  0
  8 13  1  0  0  0
  9 10  1  0  0  0
  9 11  1  0  0  0
 11 12  1  0  0  0
 11 13  1  0  0  0
 13 14  1  0  0  0
 14 15  4  0  0  0
 14 24  4  0  0  0
 15 16  4  0  0  0
 16 17  4  0  0  0
 17 18  1  0  0  0
 17 24  4  0  0  0
 18 19  2  0  0  0
 18 20  1  0  0  0
 20 21  4  0  0  0
 21 22  2  0  0  0
 21 23  1  0  0  0
 23 24  1  0  0  0
  3 25  1  0  0  0
  4 26  1  0  0  0
  6 27  1  0  0  0
  6 28  1  0  0  0
  7 29  1  0  0  0
  9 30  1  0  0  0
 10 31  1  0  0  0
 11 32  1  0  0  0
 12 33  1  0  0  0
 13 34  1  0  0  0
 15 35  1  0  0  0
 22 36  1  0  0  0
 23 37  1  0  0  0
M  END
$$$$
