3rl4_ligand
  -I-interpret- 

 37 39  0  0  0  0  0  0  0  0999 V2000
  -23.8720   11.3580    7.3000 P   0  0  0  0  0
  -22.5070   10.8010    7.3830 O   0  0  0  0  0
  -24.5900   11.6000    8.7310 O   0  0  0  0  0
  -23.8350   12.7720    6.6230 O   0  0  0  0  0
  -24.8120   10.4050    6.4280 O   0  0  0  0  0
  -26.2020   10.7260    6.2020 C   0  0  0  0  0
  -26.7620    9.9250    5.0380 C   0  0  0  0  0
  -25.9290   10.2050    3.8950 O   0  0  0  0  0
  -26.6680    8.4100    5.1630 C   0  0  0  0  0
  -27.7260    7.8970    5.9960 O   0  0  0  0  0
  -26.8170    8.0000    3.7000 C   0  0  0  0  0
  -28.1760    8.1370    3.2580 O   0  0  0  0  0
  -25.9810    9.0850    3.0010 C   0  0  0  0  0
  -24.5990    8.5730    2.7710 N   0  0  0  0  0
  -23.5650    8.5240    3.6310 C   0  0  0  0  0
  -22.5220    7.9690    3.0240 N   0  0  0  0  0
  -22.8840    7.6490    1.7830 C   0  0  0  0  0
  -22.2280    7.0490    0.7110 C   0  0  0  0  0
  -21.0520    6.6800    0.7570 O   0  0  0  0  0
  -22.9310    6.8800   -0.4720 N   0  0  0  0  0
  -24.2680    7.2830   -0.5740 C   0  0  0  0  0
  -24.9130    7.0980   -1.7200 N   0  0  0  0  0
  -24.8830    7.8600    0.4690 N   0  0  0  0  0
  -24.2100    8.0350    1.6260 C   0  0  0  0  0
  -25.4682   11.9614    8.5901 H   0  0  0  0  0
  -24.7262   13.1254    6.5737 H   0  0  0  0  0
  -26.2828   11.7875    5.9678 H   0  0  0  0  0
  -26.7686   10.4812    7.1004 H   0  0  0  0  0
  -27.8125   10.2101    4.9805 H   0  0  0  0  0
  -25.7594    8.0336    5.6331 H   0  0  0  0  0
  -27.6468    6.9424    6.0603 H   0  0  0  0  0
  -26.5223    6.9678    3.5110 H   0  0  0  0  0
  -28.2400    7.8730    2.3372 H   0  0  0  0  0
  -26.4164    9.3632    2.0413 H   0  0  0  0  0
  -23.5809    8.8822    4.6603 H   0  0  0  0  0
  -24.4341    6.6674   -2.5110 H   0  0  0  0  0
  -25.8531    8.1646    0.3884 H   0  0  0  0  0
  1  2  2  0  0  0
  1  3  1  0  0  0
  1  4  1  0  0  0
  1  5  1  0  0  0
  5  6  1  0  0  0
  6  7  1  0  0  0
  7  8  1  0  0  0
  7  9  1  0  0  0
  8 13  1  0  0  0
  9 10  1  0  0  0
  9 11  1  0  0  0
 11 12  1  0  0  0
 11 13  1  0  0  0
 13 14  1  0  0  0
 14 15  4  0  0  0
 14 24  4  0  0  0
 15 16  4  0  0  0
 16 17  4  0  0  0
 17 18  1  0  0  0
 17 24  4  0  0  0
 18 19  2  0  0  0
 18 20  1  0  0  0
 20 21  4  0  0  0
 21 22  2  0  0  0
 21 23  1  0  0  0
 23 24  1  0  0  0
  3 25  1  0  0  0
  4 26  1  0  0  0
  6 27  1  0  0  0
  6 28  1  0  0  0
  7 29  1  0  0  0
  9 30  1  0  0  0
 10 31  1  0  0  0
 11 32  1  0  0  0
 12 33  1  0  0  0
 13 34  1  0  0  0
 15 35  1  0  0  0
 22 36  1  0  0  0
 23 37  1  0  0  0
M  END
$$$$
