3rsb_ligand
  -I-interpret- 

 47 49  0  0  0  0  0  0  0  0999 V2000
    4.2640   20.0460   25.5870 P   0  0  0  0  0
    5.5940   20.4770   25.0150 O   0  0  0  0  0
    3.8710   20.9720   26.7130 O   0  0  0  0  0
    3.2090   20.0830   24.5070 O   0  0  0  0  0
    4.4170   18.5440   26.1470 O   0  0  0  0  0
    3.8510   18.1500   27.6020 P   0  0  0  0  0
    2.3470   18.0290   27.5480 O   0  0  0  0  0
    4.2790   19.1590   28.6410 O   0  0  0  0  0
    4.5020   16.7070   27.8950 O   0  0  0  0  0
    6.0920   16.4850   27.7740 P   0  0  0  0  0
    6.7750   17.8120   27.5410 O   0  0  0  0  0
    6.4210   15.5040   26.6750 O   0  0  0  0  0
    6.5170   15.9030   29.2140 O   0  0  0  0  0
    6.9210   14.5590   29.3540 C   0  0  0  0  0
    5.7790   13.7460   29.9510 C   0  0  0  0  0
    5.5980   14.0990   31.3100 O   0  0  0  0  0
    4.4730   14.0120   29.2200 C   0  0  0  0  0
    3.9970   12.8240   28.6320 O   0  0  0  0  0
    3.4980   14.4930   30.2730 C   0  0  0  0  0
    2.3980   13.6180   30.3500 O   0  0  0  0  0
    4.2650   14.4860   31.5850 C   0  0  0  0  0
    4.2480   15.8380   32.1730 N   0  0  0  0  0
    5.1270   16.8540   31.8980 C   0  0  0  0  0
    4.7800   17.9330   32.6350 N   0  0  0  0  0
    3.6930   17.6230   33.3750 C   0  0  0  0  0
    2.9420   18.3530   34.2880 C   0  0  0  0  0
    3.2400   19.5190   34.5430 O   0  0  0  0  0
    1.8590   17.7630   34.9070 N   0  0  0  0  0
    1.5300   16.4540   34.6160 C   0  0  0  0  0
    0.4870   15.8840   35.2120 N   0  0  0  0  0
    2.2820   15.7350   33.7080 N   0  0  0  0  0
    3.3470   16.3080   33.0960 C   0  0  0  0  0
    5.8401   19.8859   24.2997 H   0  0  0  0  0
    3.4625   19.4932   23.7932 H   0  0  0  0  0
    5.2372   19.2161   28.6544 H   0  0  0  0  0
    6.5496   18.4159   28.2524 H   0  0  0  0  0
    7.7879   14.5065   30.0126 H   0  0  0  0  0
    7.1833   14.1544   28.3765 H   0  0  0  0  0
    6.0403   12.6921   29.8550 H   0  0  0  0  0
    4.6019   14.7461   28.4247 H   0  0  0  0  0
    3.1728   13.0031   28.1735 H   0  0  0  0  0
    3.1118   15.4852   30.0394 H   0  0  0  0  0
    1.7868   13.9324   31.0202 H   0  0  0  0  0
    3.8089   13.7918   32.2908 H   0  0  0  0  0
    5.9644   16.8006   31.2023 H   0  0  0  0  0
   -0.0690   16.4137   35.8833 H   0  0  0  0  0
    2.0348   14.7682   33.4969 H   0  0  0  0  0
  1  2  1  0  0  0
  1  3  2  0  0  0
  1  4  1  0  0  0
  1  5  1  0  0  0
  5  6  1  0  0  0
  6  7  2  0  0  0
  6  8  1  0  0  0
  6  9  1  0  0  0
  9 10  1  0  0  0
 10 11  1  0  0  0
 10 12  2  0  0  0
 10 13  1  0  0  0
 13 14  1  0  0  0
 14 15  1  0  0  0
 15 16  1  0  0  0
 15 17  1  0  0  0
 16 21  1  0  0  0
 17 18  1  0  0  0
 17 19  1  0  0  0
 19 20  1  0  0  0
 19 21  1  0  0  0
 21 22  1  0  0  0
 22 23  4  0  0  0
 22 32  4  0  0  0
 23 24  4  0  0  0
 24 25  4  0  0  0
 25 26  1  0  0  0
 25 32  4  0  0  0
 26 27  2  0  0  0
 26 28  1  0  0  0
 28 29  4  0  0  0
 29 30  2  0  0  0
 29 31  1  0  0  0
 31 32  1  0  0  0
  2 33  1  0  0  0
  4 34  1  0  0  0
  8 35  1  0  0  0
 11 36  1  0  0  0
 14 37  1  0  0  0
 14 38  1  0  0  0
 15 39  1  0  0  0
 17 40  1  0  0  0
 18 41  1  0  0  0
 19 42  1  0  0  0
 20 43  1  0  0  0
 21 44  1  0  0  0
 23 45  1  0  0  0
 30 46  1  0  0  0
 31 47  1  0  0  0
M  END
$$$$
