3rti_ligand
  -I-interpret- 

 36 38  0  0  0  0  0  0  0  0999 V2000
   25.1070   68.0050   50.0200 P   0  0  0  0  0
   24.2690   68.0560   48.8030 O   0  0  0  0  0
   26.6660   68.2540   49.7070 O   0  0  0  0  0
   24.6870   69.1010   51.1190 O   0  0  0  0  0
   25.0370   66.5830   50.7660 O   0  0  0  0  0
   25.9270   66.2880   51.8450 C   0  0  0  0  0
   25.6990   64.8620   52.3500 C   0  0  0  0  0
   26.5530   64.5050   53.4510 O   0  0  0  0  0
   24.2850   64.6900   52.8990 C   0  0  0  0  0
   23.3730   64.5480   51.8070 O   0  0  0  0  0
   24.5070   63.3370   53.5690 C   0  0  0  0  0
   24.7600   62.3380   52.5770 O   0  0  0  0  0
   25.8010   63.6440   54.3280 C   0  0  0  0  0
   25.5180   64.4210   55.6160 C   0  0  0  0  0
   26.4350   65.0370   56.3560 N   0  0  0  0  0
   25.9040   65.5660   57.3380 N   0  0  0  0  0
   23.5450   65.7390   58.1780 C   0  0  0  0  0
   23.7760   66.4740   59.2630 N   0  0  0  0  0
   24.5890   65.3580   57.3440 C   0  0  0  0  0
   24.2800   64.6160   56.2180 C   0  0  0  0  0
   23.0140   64.2670   55.9610 N   0  0  0  0  0
   22.0490   64.6430   56.7870 C   0  0  0  0  0
   22.2980   65.3730   57.8570 N   0  0  0  0  0
   27.1663   68.2113   50.5252 H   0  0  0  0  0
   25.2618   69.0222   51.8838 H   0  0  0  0  0
   25.7406   66.9873   52.6601 H   0  0  0  0  0
   26.9545   66.3798   51.4928 H   0  0  0  0  0
   25.8998   64.2368   51.4800 H   0  0  0  0  0
   23.8880   65.4890   53.5251 H   0  0  0  0  0
   22.4821   64.4395   52.1477 H   0  0  0  0  0
   23.6770   62.9689   54.1721 H   0  0  0  0  0
   24.8985   61.4905   53.0060 H   0  0  0  0  0
   26.3183   62.7227   54.5957 H   0  0  0  0  0
   24.7274   66.7636   59.4898 H   0  0  0  0  0
   23.0017   66.7478   59.8679 H   0  0  0  0  0
   21.0228   64.3414   56.5770 H   0  0  0  0  0
  1  2  2  0  0  0
  1  3  1  0  0  0
  1  4  1  0  0  0
  5  1  1  0  0  0
  6  5  1  0  0  0
  7  6  1  0  0  0
  8  7  1  0  0  0
  9  7  1  0  0  0
 13  8  1  0  0  0
  9 10  1  0  0  0
 11  9  1  0  0  0
 11 12  1  0  0  0
 13 11  1  0  0  0
 14 13  1  0  0  0
 15 14  4  0  0  0
 14 20  4  0  0  0
 16 15  4  0  0  0
 19 16  4  0  0  0
 17 18  1  0  0  0
 17 19  4  0  0  0
 17 23  4  0  0  0
 19 20  4  0  0  0
 20 21  4  0  0  0
 21 22  4  0  0  0
 22 23  4  0  0  0
  3 24  1  0  0  0
  4 25  1  0  0  0
  6 26  1  0  0  0
  6 27  1  0  0  0
  7 28  1  0  0  0
  9 29  1  0  0  0
 10 30  1  0  0  0
 11 31  1  0  0  0
 12 32  1  0  0  0
 13 33  1  0  0  0
 18 34  1  0  0  0
 18 35  1  0  0  0
 22 36  1  0  0  0
M  END
$$$$
