3tjm_ligand
  -I-interpret- 

 58 57  0  0  0  0  0  0  0  0999 V2000
    3.6210   66.1570   47.7730 C   0  0  0  0  0
    3.2590   66.3180   46.0270 P   0  0  0  0  0
    4.1580   64.8250   48.1740 C   0  0  0  0  0
    2.6040   67.7190   45.6960 O   0  0  0  0  0
    4.2120   64.7270   49.6840 C   0  0  0  0  0
    2.8210   64.6400   50.2600 C   0  0  0  0  0
    2.8430   64.3710   51.7360 C   0  0  0  0  0
    2.7280   65.6720   52.4880 C   0  0  0  0  0
    2.2810   65.7810   53.7550 C   0  0  0  0  0
    1.8280   64.6260   54.6020 C   0  0  0  0  0
    0.7860   65.1320   55.5630 C   0  0  0  0  0
    1.1900   67.9270   45.7020 C   0  0  0  0  0
    0.2620   64.4010   56.5620 C   0  0  0  0  0
    0.6600   62.9850   56.8380 C   0  0  0  0  0
    0.5630   62.7360   58.3130 C   0  0  0  0  0
    0.6190   61.4890   58.8030 C   0  0  0  0  0
    1.9420   60.8010   58.9810 C   0  0  0  0  0
    1.7860   59.3200   58.8310 C   0  0  0  0  0
    1.6580   59.0020   57.3730 C   0  0  0  0  0
    0.3340   58.3400   57.1690 C   0  0  0  0  0
    0.5540   57.1800   56.2570 C   0  0  0  0  0
    2.4100   65.0640   45.5450 O   0  0  0  0  0
    2.6811   66.2956   48.3073 H   0  0  0  0  0
    4.3887   66.8941   48.0085 H   0  0  0  0  0
    5.1628   64.7048   47.7690 H   0  0  0  0  0
    3.5069   64.0421   47.7852 H   0  0  0  0  0
    4.7027   65.6168   50.0785 H   0  0  0  0  0
    4.7655   63.8296   49.9602 H   0  0  0  0  0
    2.2989   63.8180   49.7703 H   0  0  0  0  0
    2.3217   65.5946   50.0938 H   0  0  0  0  0
    3.7797   63.8807   52.0011 H   0  0  0  0  0
    2.0055   63.7250   51.9992 H   0  0  0  0  0
    3.0261   66.5854   51.9732 H   0  0  0  0  0
    2.2458   66.7772   54.1959 H   0  0  0  0  0
    2.6725   64.2073   55.1494 H   0  0  0  0  0
    1.4094   63.8402   53.9732 H   0  0  0  0  0
    0.4339   66.1563   55.4411 H   0  0  0  0  0
    0.7238   67.2668   44.9706 H   0  0  0  0  0
    0.7960   67.7078   46.6944 H   0  0  0  0  0
    0.9756   68.9645   45.4456 H   0  0  0  0  0
   -0.4897   64.8623   57.2025 H   0  0  0  0  0
    1.6827   62.8159   56.5009 H   0  0  0  0  0
   -0.0022   62.3038   56.3036 H   0  0  0  0  0
   -0.4370   63.0809   58.5761 H   0  0  0  0  0
    1.4469   63.2236   58.7241 H   0  0  0  0  0
    0.0989   60.8843   58.0601 H   0  0  0  0  0
    0.2244   61.5795   59.8150 H   0  0  0  0  0
    2.3230   61.0180   59.9789 H   0  0  0  0  0
    2.6349   61.1632   58.2215 H   0  0  0  0  0
    0.8976   58.9830   59.3651 H   0  0  0  0  0
    2.6540   58.8098   59.2487 H   0  0  0  0  0
    2.4656   58.3424   57.0556 H   0  0  0  0  0
    1.7230   59.9131   56.7782 H   0  0  0  0  0
   -0.3807   59.0388   56.7343 H   0  0  0  0  0
   -0.0779   58.0058   58.1212 H   0  0  0  0  0
    0.9545   57.5364   55.3080 H   0  0  0  0  0
    1.2616   56.4887   56.7147 H   0  0  0  0  0
   -0.3939   56.6703   56.0843 H   0  0  0  0  0
  1  2  1  0  0  0
  1  3  1  0  0  0
  2  4  1  0  0  0
  2 22  4  0  0  0
  3  5  1  0  0  0
  4 12  1  0  0  0
  5  6  1  0  0  0
  6  7  1  0  0  0
  7  8  1  0  0  0
  8  9  2  0  0  0
  9 10  1  0  0  0
 10 11  1  0  0  0
 11 13  2  0  0  0
 13 14  1  0  0  0
 14 15  1  0  0  0
 15 16  1  0  0  0
 16 17  1  0  0  0
 17 18  1  0  0  0
 18 19  1  0  0  0
 19 20  1  0  0  0
 20 21  1  0  0  0
  1 23  1  0  0  0
  1 24  1  0  0  0
  3 25  1  0  0  0
  3 26  1  0  0  0
  5 27  1  0  0  0
  5 28  1  0  0  0
  6 29  1  0  0  0
  6 30  1  0  0  0
  7 31  1  0  0  0
  7 32  1  0  0  0
  8 33  1  0  0  0
  9 34  1  0  0  0
 10 35  1  0  0  0
 10 36  1  0  0  0
 11 37  1  0  0  0
 12 38  1  0  0  0
 12 39  1  0  0  0
 12 40  1  0  0  0
 13 41  1  0  0  0
 14 42  1  0  0  0
 14 43  1  0  0  0
 15 44  1  0  0  0
 15 45  1  0  0  0
 16 46  1  0  0  0
 16 47  1  0  0  0
 17 48  1  0  0  0
 17 49  1  0  0  0
 18 50  1  0  0  0
 18 51  1  0  0  0
 19 52  1  0  0  0
 19 53  1  0  0  0
 20 54  1  0  0  0
 20 55  1  0  0  0
 21 56  1  0  0  0
 21 57  1  0  0  0
 21 58  1  0  0  0
M  END
$$$$
