3uat_ligand
  -I-interpret- 

259259  0  0  0  0  0  0  0  0999 V2000
  -20.7100   -5.2770   10.5750 N   0  3  0  0  0
  -19.4150   -4.6800   10.8870 C   0  0  0  0  0
  -18.4080   -5.7270   11.3580 C   0  0  0  0  0
  -18.7900   -6.7980   11.8280 O   0  0  0  0  0
  -19.5780   -3.5780   11.9350 C   0  0  0  0  0
  -20.2070   -2.3130   11.3830 C   0  0  0  0  0
  -19.2700   -1.6050   10.4130 C   0  0  0  0  0
  -18.5460   -0.4580   10.9730 N   0  0  0  0  0
  -18.6740    0.0260   12.2090 C   0  0  0  0  0
  -19.5040   -0.5190   13.0860 N   0  0  0  0  0
  -17.9570    1.0770   12.5750 N   0  0  0  0  0
  -17.1200   -5.4170   11.2280 N   0  0  0  0  0
  -16.6780   -4.1350   10.6890 C   0  0  0  0  0
  -16.2360   -4.2710    9.2390 C   0  0  0  0  0
  -15.2080   -4.8830    8.9530 O   0  0  0  0  0
  -15.5360   -3.5750   11.5360 C   0  0  0  0  0
  -15.9180   -3.3020   12.9780 C   0  0  0  0  0
  -14.6860   -3.0930   13.8390 C   0  0  0  0  0
  -15.0210   -2.7370   15.2160 N   0  0  0  0  0
  -15.1990   -3.6160   16.1990 C   0  0  0  0  0
  -15.0790   -4.9160   15.9640 N   0  0  0  0  0
  -15.4980   -3.1950   17.4220 N   0  0  0  0  0
  -17.0100   -3.6890    8.3280 N   0  0  0  0  0
  -16.7320   -3.8190    6.9030 C   0  0  0  0  0
  -15.4170   -3.1600    6.4980 C   0  0  0  0  0
  -14.5890   -3.7740    5.8280 O   0  0  0  0  0
  -17.8820   -3.2500    6.0680 C   0  0  0  0  0
  -17.6640   -3.3600    4.5900 C   0  0  0  0  0
  -17.7550   -4.5550    3.9100 N   0  0  0  0  0
  -17.3510   -2.4230    3.6630 C   0  0  0  0  0
  -17.5120   -4.3510    2.6280 C   0  0  0  0  0
  -17.2630   -3.0650    2.4510 N   0  0  0  0  0
  -15.2280   -1.9090    6.9050 N   0  0  0  0  0
  -14.0440   -1.1530    6.5030 C   0  0  0  0  0
  -14.0510    0.2360    7.1340 C   0  0  0  0  0
  -15.1510    0.9790    6.6570 O   0  0  0  0  0
  -12.7470   -1.8730    6.8440 C   0  0  0  0  0
  -11.7740   -1.7910    6.0990 O   0  0  0  0  0
  -16.0070    1.4940    7.9100 P   0  0  0  0  0
  -17.4350    2.0100    7.3710 O   0  0  0  0  0
  -16.2050    0.2950    8.9720 O   0  0  0  0  0
  -15.1950    2.6920    8.6130 O   0  0  0  0  0
  -12.7350   -2.5740    7.9710 N   0  0  0  0  0
  -11.5600   -3.3370    8.3680 C   0  0  0  0  0
  -11.4010   -4.5790    7.4890 C   0  0  0  0  0
  -10.2810   -5.0060    7.2070 O   0  0  0  0  0
  -11.6300   -3.7310    9.8490 C   0  0  0  0  0
  -11.7260   -2.5590   10.8270 C   0  0  0  0  0
  -10.3160   -1.4230   10.8200 S   0  0  0  0  0
   -8.9820   -2.4530   11.4190 C   0  0  0  0  0
  -12.5210   -5.1530    7.0560 N   0  0  0  0  0
  -12.4890   -6.3290    6.1870 C   0  0  0  0  0
  -11.6990   -6.0430    4.9120 C   0  0  0  0  0
  -10.9960   -6.9130    4.3980 O   0  0  0  0  0
  -13.9080   -6.7930    5.8420 C   0  0  0  0  0
  -11.8270   -4.8190    4.4070 N   0  0  0  0  0
  -11.0730   -4.3810    3.2390 C   0  0  0  0  0
  -10.2140   -3.1640    3.5420 C   0  0  0  0  0
  -10.7320   -2.0670    3.7300 O   0  0  0  0  0
  -12.0260   -4.0440    2.0970 C   0  0  0  0  0
  -13.4590   -4.4060    2.4110 C   0  0  0  0  0
  -14.1430   -3.6990    3.1510 O   0  0  0  0  0
  -13.9260   -5.5120    1.8450 N   0  0  0  0  0
   -8.9000   -3.3510    3.5560 N   0  0  0  0  0
   -7.9700   -2.2630    3.8340 C   0  0  0  0  0
   -6.7300   -2.3870    2.9700 C   0  0  0  0  0
   -6.2720   -3.4920    2.6930 O   0  0  0  0  0
   -7.5270   -2.2890    5.2980 C   0  0  0  0  0
   -8.4710   -1.8080    6.3950 C   0  0  0  0  0
   -7.7120   -1.7380    7.7060 C   0  0  0  0  0
   -9.0370   -0.4490    6.0410 C   0  0  0  0  0
   -6.1710   -1.2540    2.5600 N   0  0  0  0  0
   -4.8620   -1.2740    1.9330 C   0  0  0  0  0
   -3.8440   -1.0510    3.0340 C   0  0  0  0  0
   -3.7070    0.0570    3.5540 O   0  0  0  0  0
   -4.7410   -0.1750    0.8780 C   0  0  0  0  0
   -5.4190   -0.4910   -0.4430 C   0  0  0  0  0
   -5.2920    0.6430   -1.4450 C   0  0  0  0  0
   -5.1470    1.8070   -1.0130 O   0  0  0  0  0
   -5.3340    0.3710   -2.6640 O   0  0  0  0  0
   -3.1100   -2.1050    3.3710 N   0  0  0  0  0
   -2.1850   -2.0520    4.4930 C   0  0  0  0  0
   -0.9750   -1.1920    4.1770 C   0  0  0  0  0
   -0.5590   -1.0860    3.0230 O   0  0  0  0  0
   -1.7310   -3.4580    4.8850 C   0  0  0  0  0
   -2.8210   -4.3870    5.4200 C   0  0  0  0  0
   -2.2090   -5.6960    5.8710 C   0  0  0  0  0
   -3.5790   -3.7220    6.5590 C   0  0  0  0  0
   -0.4130   -0.5810    5.2110 N   0  0  0  0  0
    0.8060    0.1960    5.0600 C   0  0  0  0  0
    1.9700   -0.5070    5.7340 C   0  0  0  0  0
    1.8260   -1.0620    6.8220 O   0  0  0  0  0
    0.6350    1.5890    5.6610 C   0  0  0  0  0
   -0.2950    2.4980    4.8860 C   0  0  0  0  0
   -0.8740    3.8590    5.9130 S   0  0  0  0  0
    0.6810    4.5050    6.5390 C   0  0  0  0  0
    3.1220   -0.4890    5.0750 N   0  0  0  0  0
    4.3450   -0.9810    5.6810 C   0  0  0  0  0
    4.6290   -0.1290    6.9090 C   0  0  0  0  0
    4.3010    1.0620    6.9390 O   0  0  0  0  0
    5.5140   -0.8890    4.6970 C   0  0  0  0  0
    6.2150   -2.2110    4.4190 C   0  0  0  0  0
    7.7270   -2.0200    4.3570 C   0  0  0  0  0
    8.4370   -3.2500    3.8060 C   0  0  0  0  0
    8.2160   -3.4160    2.3390 N   0  3  0  0  0
    5.2310   -0.7380    7.9250 N   0  0  0  0  0
    5.5670   -0.0120    9.1440 C   0  0  0  0  0
    7.0670   -0.0720    9.4260 C   0  0  0  0  0
    7.7760   -0.9310    8.8970 O   0  0  0  0  0
    4.7720   -0.5450   10.3430 C   0  0  0  0  0
    3.2530   -0.7070   10.1880 C   0  0  0  0  0
    2.6060   -0.9820   11.5380 C   0  0  0  0  0
    2.6180    0.5140    9.5280 C   0  0  0  0  0
    7.5430    0.8510   10.2540 N   0  0  0  0  0
    8.9590    0.9160   10.5980 C   0  0  0  0  0
    9.3480   -0.2210   11.5390 C   0  0  0  0  0
    8.5320   -0.6470   12.3630 O   0  0  0  0  0
    9.3090    2.2700   11.2440 C   0  0  0  0  0
    9.2290    3.3060   10.2550 O   0  0  0  0  0
   10.7110    2.2410   11.8330 C   0  0  0  0  0
   10.5900   -0.7250   11.4100 N   0  0  0  0  0
   11.0910   -1.7890   12.2830 C   0  0  0  0  0
   10.8980   -1.4250   13.7510 C   0  0  0  0  0
   11.8900   -1.1530   14.4390 O   0  0  0  0  0
   12.5770   -1.8450   11.9370 C   0  0  0  0  0
    9.7442   -1.4014   14.2567 O   0  0  0  0  0
  -20.5859   -6.0092    9.8758 H   0  0  0  0  0
  -21.1108   -5.6789   11.4225 H   0  0  0  0  0
  -21.3350   -4.5586   10.2095 H   0  0  0  0  0
  -19.0220   -4.2403    9.9703 H   0  0  0  0  0
  -18.5835   -3.3197   12.2986 H   0  0  0  0  0
  -20.2367   -3.9601   12.7149 H   0  0  0  0  0
  -20.4184   -1.6401   12.2140 H   0  0  0  0  0
  -21.1182   -2.5835   10.8494 H   0  0  0  0  0
  -19.8891   -1.2203    9.6026 H   0  0  0  0  0
  -18.5181   -2.3350   10.1133 H   0  0  0  0  0
  -17.8821    0.0136   10.3588 H   0  0  0  0  0
  -19.5824   -0.1284   14.0250 H   0  0  0  0  0
  -20.0647   -1.3292   12.8223 H   0  0  0  0  0
  -17.3127    1.5103   11.9135 H   0  0  0  0  0
  -16.4179   -6.0990   11.5150 H   0  0  0  0  0
  -17.5211   -3.4450   10.7224 H   0  0  0  0  0
  -15.2399   -2.6240   11.0932 H   0  0  0  0  0
  -14.7430   -4.3228   11.5465 H   0  0  0  0  0
  -16.4700   -4.1602   13.3612 H   0  0  0  0  0
  -16.5255   -2.3977   13.0128 H   0  0  0  0  0
  -14.1103   -2.2730   13.4097 H   0  0  0  0  0
  -14.1269   -4.0284   13.8595 H   0  0  0  0  0
  -15.1255   -1.7472   15.4389 H   0  0  0  0  0
  -14.8493   -5.2457   15.0265 H   0  0  0  0  0
  -15.6341   -3.8699   18.1746 H   0  0  0  0  0
  -15.5916   -2.1967   17.6090 H   0  0  0  0  0
  -17.8144   -3.1406    8.6323 H   0  0  0  0  0
  -16.6364   -4.8864    6.7037 H   0  0  0  0  0
  -17.9655   -2.1899    6.3074 H   0  0  0  0  0
  -18.7760   -3.8249    6.3095 H   0  0  0  0  0
  -17.1977   -1.3592    3.8444 H   0  0  0  0  0
  -17.5161   -5.1132    1.8488 H   0  0  0  0  0
  -15.9221   -1.4686    7.5090 H   0  0  0  0  0
  -14.0882   -1.0579    5.4181 H   0  0  0  0  0
  -13.1284    0.7534    6.8707 H   0  0  0  0  0
  -14.1285    0.1369    8.2167 H   0  0  0  0  0
  -17.9017    1.2808    6.9562 H   0  0  0  0  0
  -16.6893   -0.4223    8.5565 H   0  0  0  0  0
  -13.5618   -2.5783    8.5683 H   0  0  0  0  0
  -10.6857   -2.7009    8.2300 H   0  0  0  0  0
  -10.7031   -4.2567   10.0785 H   0  0  0  0  0
  -12.5382   -4.3205    9.9748 H   0  0  0  0  0
  -11.7722   -2.9911   11.8266 H   0  0  0  0  0
  -12.5970   -1.9755   10.5286 H   0  0  0  0  0
   -9.2261   -2.8176   12.4168 H   0  0  0  0  0
   -8.8468   -3.2987   10.7448 H   0  0  0  0  0
   -8.0631   -1.8682   11.4592 H   0  0  0  0  0
  -13.4214   -4.7643    7.3363 H   0  0  0  0  0
  -11.9877   -7.1306    6.7295 H   0  0  0  0  0
  -14.4383   -7.0488    6.7593 H   0  0  0  0  0
  -14.4362   -5.9905    5.3272 H   0  0  0  0  0
  -13.8553   -7.6686    5.1950 H   0  0  0  0  0
  -12.4731   -4.1665    4.8511 H   0  0  0  0  0
  -10.4159   -5.2020    2.9522 H   0  0  0  0  0
  -11.7186   -4.6179    1.2228 H   0  0  0  0  0
  -11.9808   -2.9681    1.9285 H   0  0  0  0  0
  -14.8875   -5.8060    2.0168 H   0  0  0  0  0
  -13.3234   -6.0679    1.2382 H   0  0  0  0  0
   -8.5302   -4.2826    3.3668 H   0  0  0  0  0
   -8.4888   -1.3293    3.6168 H   0  0  0  0  0
   -6.6882   -1.5941    5.3391 H   0  0  0  0  0
   -7.3754   -3.3462    5.5160 H   0  0  0  0  0
   -9.3011   -2.5075    6.4936 H   0  0  0  0  0
   -7.3308   -2.7279    7.9570 H   0  0  0  0  0
   -6.8797   -1.0414    7.6057 H   0  0  0  0  0
   -8.3819   -1.3946    8.4943 H   0  0  0  0  0
   -8.2214    0.2660    5.9332 H   0  0  0  0  0
   -9.5868   -0.5191    5.1025 H   0  0  0  0  0
   -9.7088   -0.1190    6.8334 H   0  0  0  0  0
   -6.6621   -0.3689    2.6859 H   0  0  0  0  0
   -4.6986   -2.2256    1.4271 H   0  0  0  0  0
   -3.6786   -0.0500    0.6688 H   0  0  0  0  0
   -5.2303    0.7107    1.2832 H   0  0  0  0  0
   -6.4793   -0.6513   -0.2479 H   0  0  0  0  0
   -4.9366   -1.3715   -0.8674 H   0  0  0  0  0
   -5.1418    1.7925   -0.0531 H   0  0  0  0  0
   -3.1962   -2.9676    2.8335 H   0  0  0  0  0
   -2.7164   -1.6005    5.3307 H   0  0  0  0  0
   -1.0100   -3.3336    5.6930 H   0  0  0  0  0
   -1.3511   -3.9227    3.9751 H   0  0  0  0  0
   -3.5318   -4.5938    4.6199 H   0  0  0  0  0
   -1.7123   -6.1735    5.0264 H   0  0  0  0  0
   -1.4820   -5.5030    6.6599 H   0  0  0  0  0
   -2.9935   -6.3508    6.2504 H   0  0  0  0  0
   -2.8859   -3.4875    7.3669 H   0  0  0  0  0
   -4.0423   -2.8038    6.1981 H   0  0  0  0  0
   -4.3500   -4.3999    6.9253 H   0  0  0  0  0
   -0.8452   -0.6579    6.1317 H   0  0  0  0  0
    1.0139    0.2926    3.9944 H   0  0  0  0  0
    1.6177    2.0605    5.6574 H   0  0  0  0  0
    0.1998    1.4575    6.6517 H   0  0  0  0  0
   -1.1570    1.9174    4.5574 H   0  0  0  0  0
    0.2478    2.9092    4.0349 H   0  0  0  0  0
    1.1971    3.7259    7.1000 H   0  0  0  0  0
    1.3029    4.8251    5.7030 H   0  0  0  0  0
    0.4832    5.3546    7.1925 H   0  0  0  0  0
    3.1480   -0.1220    4.1237 H   0  0  0  0  0
    4.2277   -2.0287    5.9577 H   0  0  0  0  0
    6.2539   -0.2248    5.1437 H   0  0  0  0  0
    5.1045   -0.5409    3.7487 H   0  0  0  0  0
    5.8699   -2.5968    3.4597 H   0  0  0  0  0
    5.9816   -2.9085    5.2235 H   0  0  0  0  0
    8.0894   -1.8430    5.3696 H   0  0  0  0  0
    7.9371   -1.1804    3.6943 H   0  0  0  0  0
    8.0366   -4.1287    4.3117 H   0  0  0  0  0
    9.5068   -3.1302    3.9772 H   0  0  0  0  0
    8.7076   -4.2487    2.0144 H   0  0  0  0  0
    7.2176   -3.5162    2.1560 H   0  0  0  0  0
    8.5723   -2.5962    1.8478 H   0  0  0  0  0
    5.4617   -1.7288    7.8510 H   0  0  0  0  0
    5.2917    1.0314    8.9905 H   0  0  0  0  0
    4.9043    0.1974   11.1300 H   0  0  0  0  0
    5.1532   -1.5511   10.5178 H   0  0  0  0  0
    3.0784   -1.5610    9.5335 H   0  0  0  0  0
    3.0196   -1.8990   11.9576 H   0  0  0  0  0
    2.8071   -0.1494   12.2122 H   0  0  0  0  0
    1.5296   -1.0938   11.4076 H   0  0  0  0  0
    2.8084    1.3961   10.1394 H   0  0  0  0  0
    3.0507    0.6564    8.5378 H   0  0  0  0  0
    1.5430    0.3584    9.4372 H   0  0  0  0  0
    6.9015    1.5323   10.6600 H   0  0  0  0  0
    9.5246    0.8125    9.6720 H   0  0  0  0  0
    8.5982    2.4656   12.0469 H   0  0  0  0  0
    9.4472    4.1494   10.6583 H   0  0  0  0  0
   10.7680    1.4627   12.5940 H   0  0  0  0  0
   11.4316    2.0314   11.0425 H   0  0  0  0  0
   10.9347    3.2082   12.2832 H   0  0  0  0  0
   11.2007   -0.3544   10.6819 H   0  0  0  0  0
   10.5750   -2.7384   12.1397 H   0  0  0  0  0
   12.6938   -2.0803   10.8791 H   0  0  0  0  0
   13.0346   -0.8785   12.1482 H   0  0  0  0  0
   13.0597   -2.6160   12.5375 H   0  0  0  0  0
    9.0977   -1.6363   13.5870 H   0  0  0  0  0
  1  2  1  0  0  0
  2  3  1  0  0  0
  2  5  1  0  0  0
  3  4  2  0  0  0
  3 12  1  0  0  0
  5  6  1  0  0  0
  6  7  1  0  0  0
  7  8  1  0  0  0
  8  9  1  0  0  0
  9 10  1  0  0  0
  9 11  2  0  0  0
 12 13  1  0  0  0
 13 14  1  0  0  0
 13 16  1  0  0  0
 14 15  2  0  0  0
 14 23  1  0  0  0
 16 17  1  0  0  0
 17 18  1  0  0  0
 18 19  1  0  0  0
 19 20  1  0  0  0
 20 21  2  0  0  0
 20 22  1  0  0  0
 23 24  1  0  0  0
 24 25  1  0  0  0
 24 27  1  0  0  0
 25 26  2  0  0  0
 25 33  1  0  0  0
 27 28  1  0  0  0
 28 29  4  0  0  0
 28 30  4  0  0  0
 29 31  4  0  0  0
 30 32  4  0  0  0
 31 32  4  0  0  0
 33 34  1  0  0  0
 34 35  1  0  0  0
 34 37  1  0  0  0
 35 36  1  0  0  0
 36 39  1  0  0  0
 37 38  2  0  0  0
 37 43  1  0  0  0
 39 40  1  0  0  0
 39 41  1  0  0  0
 39 42  2  0  0  0
 43 44  1  0  0  0
 44 45  1  0  0  0
 44 47  1  0  0  0
 45 46  2  0  0  0
 45 51  1  0  0  0
 47 48  1  0  0  0
 48 49  1  0  0  0
 49 50  1  0  0  0
 51 52  1  0  0  0
 52 53  1  0  0  0
 52 55  1  0  0  0
 53 54  2  0  0  0
 53 56  1  0  0  0
 56 57  1  0  0  0
 57 58  1  0  0  0
 57 60  1  0  0  0
 58 59  2  0  0  0
 58 64  1  0  0  0
 60 61  1  0  0  0
 61 62  2  0  0  0
 61 63  1  0  0  0
 64 65  1  0  0  0
 65 66  1  0  0  0
 65 68  1  0  0  0
 66 67  2  0  0  0
 66 72  1  0  0  0
 68 69  1  0  0  0
 69 70  1  0  0  0
 69 71  1  0  0  0
 72 73  1  0  0  0
 73 74  1  0  0  0
 73 76  1  0  0  0
 74 75  2  0  0  0
 74 81  1  0  0  0
 76 77  1  0  0  0
 77 78  1  0  0  0
 78 79  1  0  0  0
 78 80  2  0  0  0
 81 82  1  0  0  0
 82 83  1  0  0  0
 82 85  1  0  0  0
 83 84  2  0  0  0
 83 89  1  0  0  0
 85 86  1  0  0  0
 86 87  1  0  0  0
 86 88  1  0  0  0
 89 90  1  0  0  0
 90 91  1  0  0  0
 90 93  1  0  0  0
 91 92  2  0  0  0
 91 97  1  0  0  0
 93 94  1  0  0  0
 94 95  1  0  0  0
 95 96  1  0  0  0
 97 98  1  0  0  0
 98 99  1  0  0  0
 98101  1  0  0  0
 99100  2  0  0  0
 99106  1  0  0  0
101102  1  0  0  0
102103  1  0  0  0
103104  1  0  0  0
104105  1  0  0  0
106107  1  0  0  0
107108  1  0  0  0
107110  1  0  0  0
108109  2  0  0  0
108114  1  0  0  0
110111  1  0  0  0
111112  1  0  0  0
111113  1  0  0  0
114115  1  0  0  0
115116  1  0  0  0
115118  1  0  0  0
116117  2  0  0  0
116121  1  0  0  0
118119  1  0  0  0
118120  1  0  0  0
121122  1  0  0  0
122123  1  0  0  0
122125  1  0  0  0
123124  2  0  0  0
123126  1  0  0  0
  1127  1  0  0  0
  1128  1  0  0  0
  1129  1  0  0  0
  2130  1  0  0  0
  5131  1  0  0  0
  5132  1  0  0  0
  6133  1  0  0  0
  6134  1  0  0  0
  7135  1  0  0  0
  7136  1  0  0  0
  8137  1  0  0  0
 10138  1  0  0  0
 10139  1  0  0  0
 11140  1  0  0  0
 12141  1  0  0  0
 13142  1  0  0  0
 16143  1  0  0  0
 16144  1  0  0  0
 17145  1  0  0  0
 17146  1  0  0  0
 18147  1  0  0  0
 18148  1  0  0  0
 19149  1  0  0  0
 21150  1  0  0  0
 22151  1  0  0  0
 22152  1  0  0  0
 23153  1  0  0  0
 24154  1  0  0  0
 27155  1  0  0  0
 27156  1  0  0  0
 30157  1  0  0  0
 31158  1  0  0  0
 33159  1  0  0  0
 34160  1  0  0  0
 35161  1  0  0  0
 35162  1  0  0  0
 40163  1  0  0  0
 41164  1  0  0  0
 43165  1  0  0  0
 44166  1  0  0  0
 47167  1  0  0  0
 47168  1  0  0  0
 48169  1  0  0  0
 48170  1  0  0  0
 50171  1  0  0  0
 50172  1  0  0  0
 50173  1  0  0  0
 51174  1  0  0  0
 52175  1  0  0  0
 55176  1  0  0  0
 55177  1  0  0  0
 55178  1  0  0  0
 56179  1  0  0  0
 57180  1  0  0  0
 60181  1  0  0  0
 60182  1  0  0  0
 63183  1  0  0  0
 63184  1  0  0  0
 64185  1  0  0  0
 65186  1  0  0  0
 68187  1  0  0  0
 68188  1  0  0  0
 69189  1  0  0  0
 70190  1  0  0  0
 70191  1  0  0  0
 70192  1  0  0  0
 71193  1  0  0  0
 71194  1  0  0  0
 71195  1  0  0  0
 72196  1  0  0  0
 73197  1  0  0  0
 76198  1  0  0  0
 76199  1  0  0  0
 77200  1  0  0  0
 77201  1  0  0  0
 79202  1  0  0  0
 81203  1  0  0  0
 82204  1  0  0  0
 85205  1  0  0  0
 85206  1  0  0  0
 86207  1  0  0  0
 87208  1  0  0  0
 87209  1  0  0  0
 87210  1  0  0  0
 88211  1  0  0  0
 88212  1  0  0  0
 88213  1  0  0  0
 89214  1  0  0  0
 90215  1  0  0  0
 93216  1  0  0  0
 93217  1  0  0  0
 94218  1  0  0  0
 94219  1  0  0  0
 96220  1  0  0  0
 96221  1  0  0  0
 96222  1  0  0  0
 97223  1  0  0  0
 98224  1  0  0  0
101225  1  0  0  0
101226  1  0  0  0
102227  1  0  0  0
102228  1  0  0  0
103229  1  0  0  0
103230  1  0  0  0
104231  1  0  0  0
104232  1  0  0  0
105233  1  0  0  0
105234  1  0  0  0
105235  1  0  0  0
106236  1  0  0  0
107237  1  0  0  0
110238  1  0  0  0
110239  1  0  0  0
111240  1  0  0  0
112241  1  0  0  0
112242  1  0  0  0
112243  1  0  0  0
113244  1  0  0  0
113245  1  0  0  0
113246  1  0  0  0
114247  1  0  0  0
115248  1  0  0  0
118249  1  0  0  0
119250  1  0  0  0
120251  1  0  0  0
120252  1  0  0  0
120253  1  0  0  0
121254  1  0  0  0
122255  1  0  0  0
125256  1  0  0  0
125257  1  0  0  0
125258  1  0  0  0
126259  1  0  0  0
M  END
$$$$
