3vjt_ligand
  -I-interpret- 

 63 81  0  0  0  0  0  0  0  0999 V2000
   13.1110    5.6940   26.0500 B   0  0  0  0  0
   13.3660    2.8430   26.1370 C   0  0  0  0  0
    9.5950   -2.0360   28.6960 O   0  0  0  0  0
   13.2690    5.0560   24.4420 B   0  0  0  0  0
   12.7360    1.4570   26.4460 C   0  0  0  0  0
   15.1450    7.2260   22.4450 O   0  0  0  0  0
   14.8470    4.3570   24.2020 B   0  0  0  0  0
   11.3050    1.5860   26.9860 C   0  0  0  0  0
   16.1200    8.5580   19.4380 O   0  0  0  0  0
   15.6990    4.4960   25.7410 B   0  0  0  0  0
   10.8500    0.2190   27.5300 C   0  0  0  0  0
   14.4130    4.5810   18.3270 O   0  0  0  0  0
   14.6200    5.3280   26.8900 B   0  0  0  0  0
    9.3990    0.2940   28.0310 C   0  0  0  0  0
   12.3240    4.1760   25.5780 B   0  0  0  0  0
    8.3690   -1.6300   26.6930 C   0  0  0  0  0
   13.4070    3.3410   24.4340 B   0  0  0  0  0
    7.4770   -0.9460   29.0140 C   0  0  0  0  0
   14.9330    2.9590   25.2710 B   0  0  0  0  0
    6.8660   -2.3080   29.3810 C   0  0  0  0  0
   14.7910    3.5680   26.9490 B   0  0  0  0  0
    8.7180   -1.0890   28.1020 C   0  0  0  0  0
   13.1780    4.3220   27.1400 B   0  0  0  0  0
    7.4560   -0.6910   25.8880 C   0  0  0  0  0
   14.6390    5.7460   25.2190 C   0  0  0  0  0
   15.0990    7.1440   24.7830 C   0  0  0  0  0
   14.3400    7.5730   23.5360 C   0  0  0  0  0
   14.7900    8.0510   21.3770 C   0  0  0  0  0
   15.5100    7.5140   20.1670 C   0  0  0  0  0
   14.5420    6.7850   19.2660 C   0  0  0  0  0
   14.6640    5.2940   19.5170 C   0  0  0  0  0
    9.1614   -2.8916   28.7349 H   0  0  0  0  0
   13.3449    0.9666   27.2055 H   0  0  0  0  0
   12.7013    0.8833   25.5198 H   0  0  0  0  0
   10.6371    1.9041   26.1855 H   0  0  0  0  0
   11.2788    2.3270   27.7849 H   0  0  0  0  0
   16.5713    8.1920   18.6738 H   0  0  0  0  0
   11.4968   -0.0645   28.3603 H   0  0  0  0  0
   10.9102   -0.5183   26.7294 H   0  0  0  0  0
   14.4927    3.6395   18.4966 H   0  0  0  0  0
    8.8349    0.9079   27.3288 H   0  0  0  0  0
    9.4150    0.7101   29.0383 H   0  0  0  0  0
    7.8371   -2.5722   26.8251 H   0  0  0  0  0
    9.3027   -1.7342   26.1403 H   0  0  0  0  0
    7.7884   -0.4546   29.9358 H   0  0  0  0  0
    6.7243   -0.3709   28.4747 H   0  0  0  0  0
    6.5606   -2.8248   28.4712 H   0  0  0  0  0
    7.6078   -2.9071   29.9091 H   0  0  0  0  0
    5.9979   -2.1545   30.0220 H   0  0  0  0  0
    6.5189   -0.5481   26.4261 H   0  0  0  0  0
    7.9515    0.2710   25.7568 H   0  0  0  0  0
    7.2526   -1.1324   24.9124 H   0  0  0  0  0
   16.1664    7.1192   24.5636 H   0  0  0  0  0
   14.9020    7.8542   25.5861 H   0  0  0  0  0
   13.3699    7.0793   23.4792 H   0  0  0  0  0
   14.1394    8.6443   23.5492 H   0  0  0  0  0
   15.0710    9.0860   21.5720 H   0  0  0  0  0
   13.7109    8.0489   21.2230 H   0  0  0  0  0
   16.2807    6.8261   20.5149 H   0  0  0  0  0
   14.7736    7.0031   18.2235 H   0  0  0  0  0
   13.5240    7.1120   19.4778 H   0  0  0  0  0
   15.6735    5.0705   19.8621 H   0  0  0  0  0
   13.9363    4.9974   20.2723 H   0  0  0  0  0
  1 13  1  0  0  0
  1 23  1  0  0  0
 25  1  1  0  0  0
  2  5  1  0  0  0
 17  2  1  0  0  0
 21  2  1  0  0  0
 22  3  1  0  0  0
  4 15  1  0  0  0
  4 17  1  0  0  0
 25  4  1  0  0  0
  5  8  1  0  0  0
  6 27  1  0  0  0
 28  6  1  0  0  0
 17  7  1  0  0  0
 19  7  1  0  0  0
  8 11  1  0  0  0
 29  9  1  0  0  0
 10 19  1  0  0  0
 10 21  1  0  0  0
 25 10  1  0  0  0
 11 14  1  0  0  0
 31 12  1  0  0  0
 23 13  1  0  0  0
 14 22  1  0  0  0
 15 23  1  0  0  0
 22 16  1  0  0  0
 16 24  1  0  0  0
 18 20  1  0  0  0
 22 18  1  0  0  0
 21 19  1  0  0  0
 26 25  1  0  0  0
 27 26  1  0  0  0
 29 28  1  0  0  0
 30 29  1  0  0  0
 30 31  1  0  0  0
 19  2  1  0  0  0
 19 17  1  0  0  0
  7 10  1  0  0  0
  7 25  1  0  0  0
 10 13  1  0  0  0
  1  4  1  0  0  0
  7  4  1  0  0  0
 17 15  1  0  0  0
 15  2  1  0  0  0
 21 23  1  0  0  0
 21 13  1  0  0  0
 23  2  1  0  0  0
 15  1  1  0  0  0
 25 13  1  0  0  0
  3 32  1  0  0  0
  5 33  1  0  0  0
  5 34  1  0  0  0
  8 35  1  0  0  0
  8 36  1  0  0  0
  9 37  1  0  0  0
 11 38  1  0  0  0
 11 39  1  0  0  0
 12 40  1  0  0  0
 14 41  1  0  0  0
 14 42  1  0  0  0
 16 43  1  0  0  0
 16 44  1  0  0  0
 18 45  1  0  0  0
 18 46  1  0  0  0
 20 47  1  0  0  0
 20 48  1  0  0  0
 20 49  1  0  0  0
 24 50  1  0  0  0
 24 51  1  0  0  0
 24 52  1  0  0  0
 26 53  1  0  0  0
 26 54  1  0  0  0
 27 55  1  0  0  0
 27 56  1  0  0  0
 28 57  1  0  0  0
 28 58  1  0  0  0
 29 59  1  0  0  0
 30 60  1  0  0  0
 30 61  1  0  0  0
 31 62  1  0  0  0
 31 63  1  0  0  0
M  END
$$$$
