3zjc_ligand
  -I-interpret- 

 48 50  0  0  0  0  0  0  0  0999 V2000
    4.4850   -9.5310    6.1510 P   0  0  0  0  0
    3.4450   -8.6390    5.5240 O   0  0  0  0  0
    5.7060   -8.7970    6.6450 O   0  0  0  0  0
    4.0170  -10.4080    7.2890 O   0  0  0  0  0
    4.9240  -10.5340    5.0150 N   0  0  0  0  0
    5.3450   -9.9360    3.6200 P   0  0  0  0  0
    4.1430   -9.6860    2.7990 O   0  0  0  0  0
    6.2210   -8.7870    3.9420 O   0  0  0  0  0
    6.1920  -10.9610    2.8880 O   0  0  0  0  0
    7.6860  -10.7410    2.7130 P   0  0  0  0  0
    7.8780   -9.5740    1.8170 O   0  0  0  0  0
    8.3420  -10.6860    4.0410 O   0  0  0  0  0
    8.2570  -12.0100    1.9580 O   0  0  0  0  0
    7.7630  -13.3220    2.2240 C   0  0  0  0  0
    8.6040  -14.3320    1.4700 C   0  0  0  0  0
    8.0390  -14.5080    0.1510 O   0  0  0  0  0
   10.0560  -13.9000    1.2920 C   0  0  0  0  0
   10.9190  -14.7200    2.0700 O   0  0  0  0  0
   10.3620  -14.0500   -0.1970 C   0  0  0  0  0
   11.4370  -14.9410   -0.4390 O   0  0  0  0  0
    9.0660  -14.5820   -0.8130 C   0  0  0  0  0
    8.6690  -13.8130   -1.9860 N   0  0  0  0  0
    8.0330  -12.5960   -2.0300 C   0  0  0  0  0
    7.8280  -12.1700   -3.2470 N   0  0  0  0  0
    8.3640  -13.1670   -4.0530 C   0  0  0  0  0
    8.4410  -13.2740   -5.4600 C   0  0  0  0  0
    8.0350  -12.4750   -6.3110 O   0  0  0  0  0
    9.0660  -14.4520   -5.8570 N   0  0  0  0  0
    9.5560  -15.4090   -4.9980 C   0  0  0  0  0
   10.1290  -16.4860   -5.5550 N   0  0  0  0  0
    9.4910  -15.3230   -3.6820 N   0  0  0  0  0
    8.8850  -14.1810   -3.2880 C   0  0  0  0  0
    6.3217   -9.4251    7.0298 H   0  0  0  0  0
    4.7541  -10.9312    7.6123 H   0  0  0  0  0
    4.9349  -11.5406    5.1792 H   0  0  0  0  0
    6.9590   -9.0887    4.4768 H   0  0  0  0  0
    7.4095   -9.7244    0.9927 H   0  0  0  0  0
    6.7248  -13.3951    1.9000 H   0  0  0  0  0
    7.8188  -13.5245    3.2936 H   0  0  0  0  0
    8.5973  -15.2493    2.0587 H   0  0  0  0  0
   10.2111  -12.8738    1.6252 H   0  0  0  0  0
   11.8272  -14.4346    1.9462 H   0  0  0  0  0
   10.6741  -13.1002   -0.6313 H   0  0  0  0  0
   11.5927  -15.0036   -1.3842 H   0  0  0  0  0
    9.2366  -15.6122   -1.1254 H   0  0  0  0  0
    7.7307  -12.0431   -1.1406 H   0  0  0  0  0
   10.1853  -16.5660   -6.5703 H   0  0  0  0  0
    9.8530  -16.0303   -3.0424 H   0  0  0  0  0
  1  2  2  0  0  0
  1  3  1  0  0  0
  1  4  1  0  0  0
  1  5  1  0  0  0
  5  6  1  0  0  0
  6  7  2  0  0  0
  6  8  1  0  0  0
  6  9  1  0  0  0
  9 10  1  0  0  0
 10 11  1  0  0  0
 10 12  2  0  0  0
 10 13  1  0  0  0
 13 14  1  0  0  0
 14 15  1  0  0  0
 15 16  1  0  0  0
 15 17  1  0  0  0
 16 21  1  0  0  0
 17 18  1  0  0  0
 17 19  1  0  0  0
 19 20  1  0  0  0
 19 21  1  0  0  0
 21 22  1  0  0  0
 22 23  4  0  0  0
 22 32  4  0  0  0
 23 24  4  0  0  0
 24 25  4  0  0  0
 25 26  1  0  0  0
 25 32  4  0  0  0
 26 27  2  0  0  0
 26 28  1  0  0  0
 28 29  4  0  0  0
 29 30  2  0  0  0
 29 31  1  0  0  0
 31 32  1  0  0  0
  3 33  1  0  0  0
  4 34  1  0  0  0
  5 35  1  0  0  0
  8 36  1  0  0  0
 11 37  1  0  0  0
 14 38  1  0  0  0
 14 39  1  0  0  0
 15 40  1  0  0  0
 17 41  1  0  0  0
 18 42  1  0  0  0
 19 43  1  0  0  0
 20 44  1  0  0  0
 21 45  1  0  0  0
 23 46  1  0  0  0
 30 47  1  0  0  0
 31 48  1  0  0  0
M  END
$$$$
