3zjt_ligand
  -I-interpret- 

 54 59  0  0  0  0  0  0  0  0999 V2000
   28.6000   27.3910   32.3800 B   0  0  0  0  0
   21.6260   27.0840   31.9140 P   0  0  0  0  0
   24.2470   33.7920   28.4730 N   0  0  0  0  0
   24.6620   32.6650   27.8650 C   0  0  0  0  0
   25.1260   31.6450   28.5960 N   0  0  0  0  0
   25.1790   31.7110   29.9450 C   0  0  0  0  0
   24.7510   32.8610   30.5920 C   0  0  0  0  0
   24.2620   33.9090   29.8300 C   0  0  0  0  0
   23.8260   35.0430   30.4340 N   0  0  0  0  0
   24.9340   32.6940   31.9100 N   0  0  0  0  0
   25.4370   31.4540   32.0750 C   0  0  0  0  0
   25.5670   30.8400   30.8770 N   0  0  0  0  0
   26.2620   29.5400   30.6460 C   0  0  0  0  0
   30.9550   26.7680   32.9290 C   0  0  0  0  0
   30.2940   25.7470   32.0750 C   0  0  0  0  0
   28.9960   26.0850   31.7640 C   0  0  0  0  0
   30.8630   24.5660   31.5850 C   0  0  0  0  0
   30.0880   23.7210   30.7910 C   0  0  0  0  0
   28.7710   24.0590   30.4800 C   0  0  0  0  0
   28.2120   25.2510   30.9750 C   0  0  0  0  0
   31.9550   27.5830   32.0860 C   0  0  0  0  0
   31.3000   28.2190   30.9480 N   0  3  0  0  0
   27.2420   29.3220   31.8120 C   0  0  0  0  0
   28.3830   28.5410   31.4480 O   0  0  0  0  0
   26.4800   28.4650   32.8020 C   0  0  0  0  0
   27.3730   27.4650   33.2660 O   0  0  0  0  0
   25.4370   27.7930   31.9390 C   0  0  0  0  0
   25.4140   28.4330   30.6680 O   0  0  0  0  0
   24.0450   27.9110   32.5160 C   0  0  0  0  0
   23.1950   27.2890   31.5730 O   0  0  0  0  0
   21.4100   27.5620   33.3260 O   0  5  0  0  0
   21.2120   25.7140   31.4680 O   0  0  0  0  0
   29.8890   27.6890   33.1990 O   0  0  0  0  0
   21.0969   27.7176   31.3354 H   0  0  0  0  0
   24.6203   32.5840   26.7848 H   0  0  0  0  0
   23.8427   35.1185   31.4611 H   0  0  0  0  0
   23.4783   35.8283   29.8654 H   0  0  0  0  0
   25.7005   31.0109   33.0342 H   0  0  0  0  0
   26.7952   29.5797   29.6847 H   0  0  0  0  0
   31.4151   26.3382   33.8310 H   0  0  0  0  0
   31.8905   24.3119   31.8190 H   0  0  0  0  0
   30.5112   22.7971   30.4137 H   0  0  0  0  0
   28.1770   23.4016   29.8555 H   0  0  0  0  0
   27.1862   25.5152   30.7449 H   0  0  0  0  0
   32.7421   26.9100   31.7152 H   0  0  0  0  0
   32.4061   28.3609   32.7195 H   0  0  0  0  0
   31.9796   28.7426   30.4188 H   0  0  0  0  0
   30.5801   28.8417   31.2796 H   0  0  0  0  0
   30.8879   27.5121   30.3593 H   0  0  0  0  0
   27.5527   30.2848   32.2438 H   0  0  0  0  0
   26.0434   29.0453   33.6282 H   0  0  0  0  0
   25.6963   26.7302   31.8242 H   0  0  0  0  0
   23.7696   28.9682   32.6441 H   0  0  0  0  0
   23.9855   27.3964   33.4863 H   0  0  0  0  0
  1 16  1  0  0  0
  1 24  1  0  0  0
 26  1  1  0  0  0
 30  2  1  0  0  0
  2 31  1  0  0  0
  2 32  2  0  0  0
  4  3  4  0  0  0
  8  3  4  0  0  0
  5  4  4  0  0  0
  6  5  4  0  0  0
  6  7  4  0  0  0
 12  6  1  0  0  0
  7  8  4  0  0  0
 10  7  1  0  0  0
  8  9  1  0  0  0
 11 10  2  0  0  0
 12 11  1  0  0  0
 13 12  1  0  0  0
 13 23  1  0  0  0
 28 13  1  0  0  0
 15 14  1  0  0  0
 14 21  1  0  0  0
 14 33  1  0  0  0
 16 15  4  0  0  0
 15 17  4  0  0  0
 16 20  4  0  0  0
 17 18  4  0  0  0
 19 18  4  0  0  0
 20 19  4  0  0  0
 21 22  1  0  0  0
 23 24  1  0  0  0
 25 23  1  0  0  0
 25 26  1  0  0  0
 27 25  1  0  0  0
 27 28  1  0  0  0
 29 27  1  0  0  0
 29 30  1  0  0  0
  2 34  1  0  0  0
  4 35  1  0  0  0
  9 36  1  0  0  0
  9 37  1  0  0  0
 11 38  1  0  0  0
 13 39  1  0  0  0
 14 40  1  0  0  0
 17 41  1  0  0  0
 18 42  1  0  0  0
 19 43  1  0  0  0
 20 44  1  0  0  0
 21 45  1  0  0  0
 21 46  1  0  0  0
 22 47  1  0  0  0
 22 48  1  0  0  0
 22 49  1  0  0  0
 23 50  1  0  0  0
 25 51  1  0  0  0
 27 52  1  0  0  0
 29 53  1  0  0  0
 29 54  1  0  0  0
 33  1  1  0  0  0
M  END
$$$$
