3zkf_ligand
  -I-interpret- 

150150  0  0  0  0  0  0  0  0999 V2000
   48.6070  200.4110  -12.9770 N   0  3  0  0  0
   48.3200  199.3920  -13.9940 C   0  0  0  0  0
   48.1070  197.9830  -13.4380 C   0  0  0  0  0
   47.9630  197.7930  -12.2280 O   0  0  0  0  0
   49.3960  199.3390  -15.1100 C   0  0  0  0  0
   48.7980  199.8280  -16.4170 C   0  0  0  0  0
   50.6070  200.1720  -14.7440 C   0  0  0  0  0
   48.0500  197.0150  -14.3520 N   0  0  0  0  0
   47.9410  195.6120  -14.0090 C   0  0  0  0  0
   46.5270  195.0820  -13.9620 C   0  0  0  0  0
   46.1230  194.3190  -14.8370 O   0  0  0  0  0
   45.7840  195.4990  -12.9400 N   0  0  0  0  0
   44.5100  194.8870  -12.5710 C   0  0  0  0  0
   43.3190  195.8670  -12.6080 C   0  0  0  0  0
   43.3730  196.9520  -12.0400 O   0  0  0  0  0
   44.6350  194.2460  -11.1740 C   0  0  0  0  0
   45.6900  193.1580  -11.0810 C   0  0  0  0  0
   45.4630  191.8140  -12.2910 S   0  0  0  0  0
   44.8470  190.5050  -11.2330 C   0  0  0  0  0
   42.2440  195.4590  -13.2670 N   0  0  0  0  0
   41.0480  196.2710  -13.4080 C   0  0  0  0  0
   39.8460  195.3870  -13.1380 C   0  0  0  0  0
   39.7320  194.2990  -13.6930 O   0  0  0  0  0
   40.9520  196.8270  -14.8280 C   0  0  0  0  0
   42.2330  197.4060  -15.3260 C   0  0  0  0  0
   42.5210  198.7500  -15.2410 N   0  0  0  0  0
   43.3210  196.8200  -15.8830 C   0  0  0  0  0
   43.7250  198.9710  -15.7380 C   0  0  0  0  0
   44.2320  197.8140  -16.1330 N   0  0  0  0  0
   38.9560  195.8350  -12.2670 N   0  0  0  0  0
   37.7320  195.0960  -12.0390 C   0  0  0  0  0
   37.2000  195.3460  -10.6390 C   0  0  0  0  0
   37.1030  196.7440  -10.4190 O   0  0  0  0  0
   36.7500  195.5320  -13.1100 C   0  0  0  0  0
   36.8550  196.6360  -13.6470 O   0  0  0  0  0
   37.7000  197.1960   -8.9840 P   0  0  0  0  0
   36.5510  198.1160   -8.3340 O   0  0  0  0  0
   37.9870  195.9510   -7.9850 O   0  0  0  0  0
   39.0690  198.0120   -9.2550 O   0  0  0  0  0
   35.8330  194.6350  -13.4480 N   0  0  0  0  0
   34.8700  194.8390  -14.5220 C   0  0  0  0  0
   33.6520  193.9790  -14.2620 C   0  0  0  0  0
   33.7620  192.8890  -13.7010 O   0  0  0  0  0
   35.4830  194.5140  -15.8870 C   0  0  0  0  0
   36.2280  195.6900  -16.5060 C   0  0  0  0  0
   36.8360  195.3440  -17.8650 C   0  0  0  0  0
   37.8500  196.4110  -18.3090 C   0  0  0  0  0
   37.6740  196.7440  -19.7620 N   0  3  0  0  0
   32.4900  194.5040  -14.6430 N   0  0  0  0  0
   31.2120  193.8570  -14.4070 C   0  0  0  0  0
   30.4460  193.6320  -15.6970 C   0  0  0  0  0
   30.5350  194.4320  -16.6300 O   0  0  0  0  0
   29.7110  192.5300  -15.7640 N   0  0  0  0  0
   28.9330  192.2180  -16.9530 C   0  0  0  0  0
   27.5240  191.8200  -16.5680 C   0  0  0  0  0
   27.2880  191.3030  -15.4830 O   0  0  0  0  0
   29.5520  191.0500  -17.7890 C   0  0  0  0  0
   29.5520  189.8340  -17.0190 O   0  0  0  0  0
   30.9640  191.3820  -18.2500 C   0  0  0  0  0
   26.5930  192.0470  -17.4810 N   0  0  0  0  0
   25.2220  191.6340  -17.2700 C   0  0  0  0  0
   24.6550  191.2970  -18.6280 C   0  0  0  0  0
   24.6720  192.1340  -19.5310 O   0  0  0  0  0
   24.4330  192.7640  -16.6000 C   0  0  0  0  0
   23.0290  192.3940  -16.1450 C   0  0  0  0  0
   23.0180  191.1860  -15.2450 C   0  0  0  0  0
   23.3110  191.2750  -14.0480 O   0  0  0  0  0
   22.6820  190.0350  -15.8160 N   0  0  0  0  0
   24.1760  190.0650  -18.7770 N   0  0  0  0  0
   23.6270  189.5780  -20.0590 C   0  0  0  0  0
   22.6480  190.5440  -20.7370 C   0  0  0  0  0
   21.4041  190.4497  -20.5596 O   0  0  0  0  0
   22.9640  188.1800  -19.9180 C   0  0  0  0  0
   22.3750  188.0410  -18.6160 O   0  0  0  0  0
   24.0070  187.0960  -20.0950 C   0  0  0  0  0
   23.0969  191.4512  -21.4874 O   0  0  0  0  0
   47.8708  200.4019  -12.2711 H   0  0  0  0  0
   49.5043  200.2071  -12.5368 H   0  0  0  0  0
   48.6447  201.3295  -13.4189 H   0  0  0  0  0
   47.3723  199.7220  -14.4196 H   0  0  0  0  0
   49.7244  198.3059  -15.2242 H   0  0  0  0  0
   48.4957  200.8697  -16.3095 H   0  0  0  0  0
   49.5419  199.7441  -17.2093 H   0  0  0  0  0
   47.9286  199.2200  -16.6673 H   0  0  0  0  0
   51.3552  200.0890  -15.5323 H   0  0  0  0  0
   50.3090  201.2145  -14.6325 H   0  0  0  0  0
   51.0251  199.8098  -13.8048 H   0  0  0  0  0
   48.0847  197.2738  -15.3380 H   0  0  0  0  0
   48.3566  195.4968  -13.0080 H   0  0  0  0  0
   48.4635  195.0538  -14.7858 H   0  0  0  0  0
   46.1212  196.2862  -12.3859 H   0  0  0  0  0
   44.2940  194.1261  -13.3210 H   0  0  0  0  0
   43.6749  193.7836  -10.9451 H   0  0  0  0  0
   44.9261  195.0364  -10.4822 H   0  0  0  0  0
   45.6178  192.7175  -10.0866 H   0  0  0  0  0
   46.6554  193.6212  -11.2850 H   0  0  0  0  0
   45.5881  190.2806  -10.4658 H   0  0  0  0  0
   43.9193  190.8278  -10.7605 H   0  0  0  0  0
   44.6603  189.6134  -11.8315 H   0  0  0  0  0
   42.2571  194.5330  -13.6945 H   0  0  0  0  0
   41.0824  197.1049  -12.7069 H   0  0  0  0  0
   40.2120  197.6273  -14.8179 H   0  0  0  0  0
   40.6873  196.0002  -15.4871 H   0  0  0  0  0
   43.4479  195.7579  -16.0928 H   0  0  0  0  0
   44.2170  199.9410  -15.8104 H   0  0  0  0  0
   39.1322  196.7004  -11.7566 H   0  0  0  0  0
   37.9020  194.0213  -12.1044 H   0  0  0  0  0
   37.8774  194.9068   -9.9067 H   0  0  0  0  0
   36.2152  194.8904  -10.5354 H   0  0  0  0  0
   38.6716  195.3923   -8.3602 H   0  0  0  0  0
   39.7205  197.4223   -9.6415 H   0  0  0  0  0
   35.8005  193.7573  -12.9293 H   0  0  0  0  0
   34.5774  195.8888  -14.5420 H   0  0  0  0  0
   34.6679  194.2482  -16.5602 H   0  0  0  0  0
   36.2014  193.7071  -15.7427 H   0  0  0  0  0
   37.0401  195.9664  -15.8336 H   0  0  0  0  0
   35.5153  196.5017  -16.6521 H   0  0  0  0  0
   36.0349  195.2974  -18.6026 H   0  0  0  0  0
   37.3518  194.3874  -17.7817 H   0  0  0  0  0
   38.8571  196.0225  -18.1575 H   0  0  0  0  0
   37.6896  197.3141  -17.7201 H   0  0  0  0  0
   38.3563  197.4524  -20.0323 H   0  0  0  0  0
   37.8151  195.9031  -20.3218 H   0  0  0  0  0
   36.7314  197.1020  -19.9158 H   0  0  0  0  0
   32.4977  195.4036  -15.1236 H   0  0  0  0  0
   30.6153  194.5030  -13.7631 H   0  0  0  0  0
   31.3996  192.8868  -13.9469 H   0  0  0  0  0
   29.6909  191.8911  -14.9692 H   0  0  0  0  0
   28.9332  193.1213  -17.5631 H   0  0  0  0  0
   28.9357  190.9109  -18.6772 H   0  0  0  0  0
   29.9338  189.1253  -17.5421 H   0  0  0  0  0
   30.9409  192.2774  -18.8711 H   0  0  0  0  0
   31.5969  191.5579  -17.3802 H   0  0  0  0  0
   31.3618  190.5477  -18.8277 H   0  0  0  0  0
   26.8460  192.5210  -18.3480 H   0  0  0  0  0
   25.1604  190.7678  -16.6112 H   0  0  0  0  0
   24.3227  193.5523  -17.3446 H   0  0  0  0  0
   24.9879  193.0445  -15.7047 H   0  0  0  0  0
   22.4375  192.1609  -17.0304 H   0  0  0  0  0
   22.6226  193.2361  -15.5849 H   0  0  0  0  0
   22.6587  189.1787  -15.2623 H   0  0  0  0  0
   22.4473  190.0073  -16.8082 H   0  0  0  0  0
   24.1882  189.4332  -17.9764 H   0  0  0  0  0
   24.4991  189.5027  -20.7085 H   0  0  0  0  0
   21.2211  189.7163  -19.9679 H   0  0  0  0  0
   22.1930  188.0845  -20.6826 H   0  0  0  0  0
   21.9689  187.1744  -18.5406 H   0  0  0  0  0
   24.4563  187.1839  -21.0842 H   0  0  0  0  0
   24.7783  187.2078  -19.3330 H   0  0  0  0  0
   23.5343  186.1189  -19.9947 H   0  0  0  0  0
  1  2  1  0  0  0
  2  3  1  0  0  0
  2  5  1  0  0  0
  3  4  2  0  0  0
  3  8  1  0  0  0
  5  6  1  0  0  0
  5  7  1  0  0  0
  8  9  1  0  0  0
  9 10  1  0  0  0
 10 11  2  0  0  0
 10 12  1  0  0  0
 12 13  1  0  0  0
 13 14  1  0  0  0
 13 16  1  0  0  0
 14 15  2  0  0  0
 14 20  1  0  0  0
 16 17  1  0  0  0
 17 18  1  0  0  0
 18 19  1  0  0  0
 20 21  1  0  0  0
 21 22  1  0  0  0
 21 24  1  0  0  0
 22 23  2  0  0  0
 22 30  1  0  0  0
 24 25  1  0  0  0
 25 26  4  0  0  0
 25 27  4  0  0  0
 26 28  4  0  0  0
 27 29  4  0  0  0
 28 29  4  0  0  0
 30 31  1  0  0  0
 31 32  1  0  0  0
 31 34  1  0  0  0
 32 33  1  0  0  0
 33 36  1  0  0  0
 34 35  2  0  0  0
 34 40  1  0  0  0
 36 37  2  0  0  0
 36 38  1  0  0  0
 36 39  1  0  0  0
 40 41  1  0  0  0
 41 42  1  0  0  0
 41 44  1  0  0  0
 42 43  2  0  0  0
 42 49  1  0  0  0
 44 45  1  0  0  0
 45 46  1  0  0  0
 46 47  1  0  0  0
 47 48  1  0  0  0
 49 50  1  0  0  0
 50 51  1  0  0  0
 51 52  2  0  0  0
 51 53  1  0  0  0
 53 54  1  0  0  0
 54 55  1  0  0  0
 54 57  1  0  0  0
 55 56  2  0  0  0
 55 60  1  0  0  0
 57 58  1  0  0  0
 57 59  1  0  0  0
 60 61  1  0  0  0
 61 62  1  0  0  0
 61 64  1  0  0  0
 62 63  2  0  0  0
 62 69  1  0  0  0
 64 65  1  0  0  0
 65 66  1  0  0  0
 66 67  2  0  0  0
 66 68  1  0  0  0
 69 70  1  0  0  0
 70 71  1  0  0  0
 70 73  1  0  0  0
 71 72  1  0  0  0
 73 74  1  0  0  0
 73 75  1  0  0  0
 71 76  2  0  0  0
  1 77  1  0  0  0
  1 78  1  0  0  0
  1 79  1  0  0  0
  2 80  1  0  0  0
  5 81  1  0  0  0
  6 82  1  0  0  0
  6 83  1  0  0  0
  6 84  1  0  0  0
  7 85  1  0  0  0
  7 86  1  0  0  0
  7 87  1  0  0  0
  8 88  1  0  0  0
  9 89  1  0  0  0
  9 90  1  0  0  0
 12 91  1  0  0  0
 13 92  1  0  0  0
 16 93  1  0  0  0
 16 94  1  0  0  0
 17 95  1  0  0  0
 17 96  1  0  0  0
 19 97  1  0  0  0
 19 98  1  0  0  0
 19 99  1  0  0  0
 20100  1  0  0  0
 21101  1  0  0  0
 24102  1  0  0  0
 24103  1  0  0  0
 27104  1  0  0  0
 28105  1  0  0  0
 30106  1  0  0  0
 31107  1  0  0  0
 32108  1  0  0  0
 32109  1  0  0  0
 38110  1  0  0  0
 39111  1  0  0  0
 40112  1  0  0  0
 41113  1  0  0  0
 44114  1  0  0  0
 44115  1  0  0  0
 45116  1  0  0  0
 45117  1  0  0  0
 46118  1  0  0  0
 46119  1  0  0  0
 47120  1  0  0  0
 47121  1  0  0  0
 48122  1  0  0  0
 48123  1  0  0  0
 48124  1  0  0  0
 49125  1  0  0  0
 50126  1  0  0  0
 50127  1  0  0  0
 53128  1  0  0  0
 54129  1  0  0  0
 57130  1  0  0  0
 58131  1  0  0  0
 59132  1  0  0  0
 59133  1  0  0  0
 59134  1  0  0  0
 60135  1  0  0  0
 61136  1  0  0  0
 64137  1  0  0  0
 64138  1  0  0  0
 65139  1  0  0  0
 65140  1  0  0  0
 68141  1  0  0  0
 68142  1  0  0  0
 69143  1  0  0  0
 70144  1  0  0  0
 72145  1  0  0  0
 73146  1  0  0  0
 74147  1  0  0  0
 75148  1  0  0  0
 75149  1  0  0  0
 75150  1  0  0  0
M  END
$$$$
