3zp9_ligand
  -I-interpret- 

 70 74  0  0  0  0  0  0  0  0999 V2000
   20.9260    7.2640    9.8070 Cl  0  0  0  0  0
   16.8800    7.5950   11.8500 C   0  0  0  0  0
   17.7060    6.6270   12.6260 C   0  0  0  0  0
   17.1220    5.5590   13.3000 C   0  0  0  0  0
   19.0920    6.7440   12.7140 N   0  0  0  0  0
   19.8980    5.8480   13.3990 C   0  0  0  0  0
   19.3300    4.8000   14.0910 C   0  0  0  0  0
   17.9360    4.6740   14.0360 C   0  0  0  0  0
   17.2630    3.5700   14.7090 C   0  0  0  0  0
   18.0090    2.5460   15.3040 C   0  0  0  0  0
   17.4150    1.4440   15.9670 C   0  0  0  0  0
   15.8840    3.4970   14.8270 C   0  0  0  0  0
   15.2980    2.3820   15.5020 C   0  0  0  0  0
   16.0400    1.3250   16.0940 C   0  0  0  0  0
   15.4300    0.0230   16.9310 S   0  0  0  0  0
   15.9690    0.1210   18.2680 O   0  0  0  0  0
   13.9890    0.1900   16.8670 O   0  0  0  0  0
   15.8880   -1.3410   16.2680 N   0  0  0  0  0
   17.8890    8.4190   11.1590 N   0  0  0  0  0
   17.8090    8.2420    9.6260 S   0  0  0  0  0
   18.7560    9.2070    9.1100 O   0  0  0  0  0
   18.2740    6.9080    9.3270 O   0  0  0  0  0
   16.2660    8.4080    9.1230 C   0  0  0  0  0
   15.6580    9.6780    9.1190 C   0  0  0  0  0
   14.3250    9.8040    8.6900 C   0  0  0  0  0
   13.5990    8.6770    8.2740 C   0  0  0  0  0
   14.2110    7.4150    8.2740 C   0  0  0  0  0
   15.5410    7.2830    8.7010 C   0  0  0  0  0
   19.2770    9.8480   13.1150 C   0  0  0  0  0
   17.8970    9.9030   13.5240 C   0  0  0  0  0
   19.7620   10.6130   12.0040 C   0  0  0  0  0
   18.9580   11.5500   11.1310 C   0  0  0  0  0
   21.1650   10.3080   11.9160 C   0  0  0  0  0
   22.0790   10.8970   10.8880 C   0  0  0  0  0
   21.5290    9.3600   12.9700 C   0  0  0  0  0
   22.8870    8.7990   13.2070 C   0  0  0  0  0
   20.3230    9.0510   13.7570 C   0  0  0  0  0
   20.1880    8.1390   14.9360 C   0  0  0  0  0
   20.0460    8.4280   11.7340 Ir  0  0  0  0  0
   16.2168    8.1846   12.4830 H   0  0  0  0  0
   16.1933    7.1042   11.1603 H   0  0  0  0  0
   16.0433    5.4077   13.2593 H   0  0  0  0  0
   20.9809    5.9722   13.3904 H   0  0  0  0  0
   19.9409    4.0977   14.6581 H   0  0  0  0  0
   19.0966    2.5989   15.2550 H   0  0  0  0  0
   18.0560    0.6695   16.3882 H   0  0  0  0  0
   15.2531    4.2817   14.4094 H   0  0  0  0  0
   14.2108    2.3398   15.5669 H   0  0  0  0  0
   16.4772   -1.9894   16.7903 H   0  0  0  0  0
   15.5937   -1.5708   15.3188 H   0  0  0  0  0
   16.2158   10.5557    9.4456 H   0  0  0  0  0
   13.8511   10.7856    8.6804 H   0  0  0  0  0
   12.5630    8.7823    7.9520 H   0  0  0  0  0
   13.6544    6.5383    7.9429 H   0  0  0  0  0
   16.0139    6.3009    8.7050 H   0  0  0  0  0
   17.6408   10.9267   13.7968 H   0  0  0  0  0
   17.2621    9.5752   12.7009 H   0  0  0  0  0
   17.7475    9.2485   14.3827 H   0  0  0  0  0
   18.1531   10.9948   10.6493 H   0  0  0  0  0
   18.5357   12.3448   11.7459 H   0  0  0  0  0
   19.6078   11.9834   10.3707 H   0  0  0  0  0
   22.8732   11.4534   11.3859 H   0  0  0  0  0
   22.5144   10.0967   10.2896 H   0  0  0  0  0
   21.5129   11.5684   10.2424 H   0  0  0  0  0
   23.2137    8.2550   12.3208 H   0  0  0  0  0
   23.5835    9.6117   13.4133 H   0  0  0  0  0
   22.8549    8.1210   14.0598 H   0  0  0  0  0
   19.1784    7.7289   14.9628 H   0  0  0  0  0
   20.9094    7.3265   14.8497 H   0  0  0  0  0
   20.3782    8.6998   15.8511 H   0  0  0  0  0
  2  3  1  0  0  0
 19  2  1  0  0  0
  3  4  4  0  0  0
  5  3  4  0  0  0
  4  8  4  0  0  0
  5  6  4  0  0  0
  6  7  4  0  0  0
  7  8  4  0  0  0
  8  9  1  0  0  0
  9 10  4  0  0  0
  9 12  4  0  0  0
 10 11  4  0  0  0
 11 14  4  0  0  0
 12 13  4  0  0  0
 13 14  4  0  0  0
 14 15  1  0  0  0
 15 16  2  0  0  0
 15 17  2  0  0  0
 15 18  1  0  0  0
 19 20  1  0  0  0
 20 21  2  0  0  0
 20 22  2  0  0  0
 20 23  1  0  0  0
 23 24  4  0  0  0
 23 28  4  0  0  0
 24 25  4  0  0  0
 25 26  4  0  0  0
 27 26  4  0  0  0
 28 27  4  0  0  0
 29 30  1  0  0  0
 29 31  2  0  0  0
 37 29  1  0  0  0
 31 32  1  0  0  0
 33 31  1  0  0  0
 33 34  1  0  0  0
 35 33  2  0  0  0
 35 36  1  0  0  0
 37 35  1  0  0  0
 37 38  1  0  0  0
 39  1  1  0  0  0
 39  5  1  0  0  0
 39 19  1  0  0  0
 39 37  1  0  0  0
  2 40  1  0  0  0
  2 41  1  0  0  0
  4 42  1  0  0  0
  6 43  1  0  0  0
  7 44  1  0  0  0
 10 45  1  0  0  0
 11 46  1  0  0  0
 12 47  1  0  0  0
 13 48  1  0  0  0
 18 49  1  0  0  0
 18 50  1  0  0  0
 24 51  1  0  0  0
 25 52  1  0  0  0
 26 53  1  0  0  0
 27 54  1  0  0  0
 28 55  1  0  0  0
 30 56  1  0  0  0
 30 57  1  0  0  0
 30 58  1  0  0  0
 32 59  1  0  0  0
 32 60  1  0  0  0
 32 61  1  0  0  0
 34 62  1  0  0  0
 34 63  1  0  0  0
 34 64  1  0  0  0
 36 65  1  0  0  0
 36 66  1  0  0  0
 36 67  1  0  0  0
 38 68  1  0  0  0
 38 69  1  0  0  0
 38 70  1  0  0  0
M  END
$$$$
