3zuk_ligand
  -I-interpret- 

 70 72  0  0  0  0  0  0  0  0999 V2000
   59.3280   65.1530    8.0870 C   0  0  0  0  0
   59.7850   65.1010    6.7460 O   0  0  0  0  0
   58.0940   64.2980    8.2470 C   0  0  0  0  0
   57.6830   64.6100    9.5510 O   0  0  0  0  0
   58.4020   62.8570    8.0800 C   0  0  0  0  0
   57.2500   62.1080    8.5290 O   0  0  0  0  0
   59.5460   62.4450    8.8310 C   0  0  0  0  0
   59.9090   61.0650    8.6030 O   0  0  0  0  0
   60.7400   63.3090    8.5530 C   0  0  0  0  0
   60.3420   64.6880    8.9110 O   0  0  0  0  0
   61.9120   62.9270    9.3390 C   0  0  0  0  0
   60.1560   66.4140    5.9120 P   0  0  0  0  0
   61.4100   66.8320    6.7080 O   0  0  0  0  0
   60.3240   66.1120    4.3900 O   0  0  0  0  0
   59.0900   67.5600    6.4940 N   0  0  0  0  0
   59.5890   68.9310    6.4960 C   0  0  0  0  0
   60.0360   69.4310    7.8710 C   0  0  0  0  0
   61.0470   70.0930    8.0470 O   0  0  0  0  0
   58.5080   69.9210    5.9820 C   0  0  0  0  0
   58.9150   71.4510    6.0520 C   0  0  0  0  0
   57.7790   72.4930    5.9270 C   0  0  0  0  0
   60.2080   71.8250    5.3170 C   0  0  0  0  0
   59.1620   69.1200    8.9920 N   0  0  0  0  0
   59.4520   69.5790   10.3890 C   0  0  0  0  0
   59.0250   68.4100   11.2850 C   0  0  0  0  0
   58.3740   67.4380   10.7800 O   0  0  0  0  0
   58.7790   70.9040   10.7020 C   0  0  0  0  0
   57.4530   70.8770   11.4460 C   0  0  0  0  0
   56.2670   70.5080   10.8570 C   0  0  0  0  0
   57.2600   71.1880   12.7610 C   0  0  0  0  0
   55.2480   70.5880   11.8490 N   0  0  0  0  0
   55.9120   71.0200   13.0340 C   0  0  0  0  0
   58.1190   71.6240   13.8120 C   0  0  0  0  0
   55.4120   71.2970   14.3320 C   0  0  0  0  0
   57.6210   71.8890   15.0900 C   0  0  0  0  0
   56.2570   71.7240   15.3590 C   0  0  0  0  0
   59.2840   68.3780   12.4910 O   0  0  0  0  0
   59.0701   66.1775    8.3554 H   0  0  0  0  0
   57.3245   64.4903    7.4993 H   0  0  0  0  0
   57.4957   65.5497    9.6101 H   0  0  0  0  0
   58.6280   62.6740    7.0295 H   0  0  0  0  0
   56.4776   62.3802    8.0281 H   0  0  0  0  0
   59.2495   62.5539    9.8742 H   0  0  0  0  0
   59.1509   60.5027    8.7783 H   0  0  0  0  0
   61.0258   63.2061    7.5062 H   0  0  0  0  0
   62.7316   63.6124    9.1234 H   0  0  0  0  0
   61.6672   62.9737   10.4001 H   0  0  0  0  0
   62.2079   61.9110    9.0775 H   0  0  0  0  0
   59.4740   65.8655    4.0181 H   0  0  0  0  0
   58.1558   67.3185    6.8248 H   0  0  0  0  0
   60.4567   68.9025    5.8369 H   0  0  0  0  0
   57.6364   69.7972    6.6246 H   0  0  0  0  0
   58.3412   69.6872    4.9305 H   0  0  0  0  0
   59.1739   71.5345    7.1075 H   0  0  0  0  0
   57.2778   72.3688    4.9670 H   0  0  0  0  0
   57.0619   72.3454    6.7345 H   0  0  0  0  0
   58.1995   73.4965    5.9917 H   0  0  0  0  0
   61.0410   71.2650    5.7420 H   0  0  0  0  0
   60.1067   71.5814    4.2594 H   0  0  0  0  0
   60.3920   72.8935    5.4290 H   0  0  0  0  0
   58.3208   68.5692    8.8207 H   0  0  0  0  0
   60.5058   69.8048   10.5522 H   0  0  0  0  0
   58.2447   67.5941    9.8416 H   0  0  0  0  0
   58.5562   71.3498    9.7326 H   0  0  0  0  0
   59.4692   71.4285   11.3627 H   0  0  0  0  0
   56.1309   70.2082    9.8179 H   0  0  0  0  0
   59.1832   71.7529   13.6149 H   0  0  0  0  0
   54.3476   71.1743   14.5320 H   0  0  0  0  0
   58.2949   72.2245   15.8783 H   0  0  0  0  0
   55.8607   71.9256   16.3542 H   0  0  0  0  0
  1  2  1  0  0  0
  1  3  1  0  0  0
  1 10  1  0  0  0
  2 12  1  0  0  0
  3  4  1  0  0  0
  3  5  1  0  0  0
  5  6  1  0  0  0
  5  7  1  0  0  0
  7  8  1  0  0  0
  7  9  1  0  0  0
  9 10  1  0  0  0
  9 11  1  0  0  0
 12 13  2  0  0  0
 12 14  1  0  0  0
 12 15  1  0  0  0
 15 16  1  0  0  0
 16 17  1  0  0  0
 16 19  1  0  0  0
 17 18  2  0  0  0
 17 23  1  0  0  0
 19 20  1  0  0  0
 20 21  1  0  0  0
 20 22  1  0  0  0
 23 24  1  0  0  0
 24 25  1  0  0  0
 24 27  1  0  0  0
 25 26  1  0  0  0
 25 37  2  0  0  0
 27 28  1  0  0  0
 28 29  4  0  0  0
 28 30  4  0  0  0
 29 31  4  0  0  0
 30 32  4  0  0  0
 30 33  4  0  0  0
 31 32  4  0  0  0
 32 34  4  0  0  0
 33 35  4  0  0  0
 34 36  4  0  0  0
 35 36  4  0  0  0
  1 38  1  0  0  0
  3 39  1  0  0  0
  4 40  1  0  0  0
  5 41  1  0  0  0
  6 42  1  0  0  0
  7 43  1  0  0  0
  8 44  1  0  0  0
  9 45  1  0  0  0
 11 46  1  0  0  0
 11 47  1  0  0  0
 11 48  1  0  0  0
 14 49  1  0  0  0
 15 50  1  0  0  0
 16 51  1  0  0  0
 19 52  1  0  0  0
 19 53  1  0  0  0
 20 54  1  0  0  0
 21 55  1  0  0  0
 21 56  1  0  0  0
 21 57  1  0  0  0
 22 58  1  0  0  0
 22 59  1  0  0  0
 22 60  1  0  0  0
 23 61  1  0  0  0
 24 62  1  0  0  0
 26 63  1  0  0  0
 27 64  1  0  0  0
 27 65  1  0  0  0
 29 66  1  0  0  0
 33 67  1  0  0  0
 34 68  1  0  0  0
 35 69  1  0  0  0
 36 70  1  0  0  0
M  END
$$$$
