4bxk_ligand
  -I-interpret- 

 62 63  0  0  0  0  0  0  0  0999 V2000
   -5.7470  -22.3020  -21.6340 N   0  0  0  0  0
   -6.2880  -23.0360  -20.8130 N   0  0  0  0  0
   -6.0470  -22.6280  -19.6190 N   0  0  0  0  0
   -5.3490  -21.6280  -19.6290 N   0  0  0  0  0
   -5.1200  -21.3800  -20.9120 C   0  0  0  0  0
   -4.3070  -20.1990  -21.4280 C   0  0  0  0  0
   -4.6100  -19.9360  -22.8930 C   0  0  0  0  0
   -6.0170  -19.6470  -23.1620 N   0  3  0  0  0
   -3.7800  -18.7830  -23.4910 C   0  0  0  0  0
   -3.7960  -18.6910  -24.7090 O   0  0  0  0  0
   -3.0820  -17.9400  -22.6940 N   0  0  0  0  0
   -2.1980  -16.9250  -23.2940 C   0  0  0  0  0
   -2.4580  -15.5230  -22.7810 C   0  0  0  0  0
   -3.7600  -15.1210  -23.1820 C   0  0  0  0  0
   -4.8080  -15.0440  -22.2630 C   0  0  0  0  0
   -6.0820  -14.6380  -22.6730 C   0  0  0  0  0
   -6.3370  -14.2920  -23.9980 C   0  0  0  0  0
   -5.2880  -14.3610  -24.9090 C   0  0  0  0  0
   -4.0170  -14.7640  -24.5040 C   0  0  0  0  0
   -0.4560  -17.4960  -22.8680 P   0  0  0  0  0
   -0.3010  -18.9090  -23.5510 O   0  0  0  0  0
   -0.2750  -17.6430  -21.4020 O   0  0  0  0  0
    0.5950  -16.3890  -23.7480 C   0  0  0  0  0
    1.9390  -16.2860  -22.9940 C   0  0  0  0  0
    3.0830  -15.9700  -23.9990 C   0  0  0  0  0
    1.9540  -15.1540  -21.9380 C   0  0  0  0  0
    1.1420  -14.2210  -21.9620 O   0  0  0  0  0
    2.9830  -15.2510  -21.0800 N   0  0  0  0  0
    3.2310  -14.2910  -19.9900 C   0  0  0  0  0
    4.3230  -14.8320  -19.0500 C   0  0  0  0  0
    3.6540  -12.9080  -20.5440 C   0  0  0  0  0
    3.3540  -11.8860  -19.9240 O   0  0  0  0  0
    4.3120  -12.8870  -21.7100 N   0  0  0  0  0
   -3.2467  -20.4294  -21.3238 H   0  0  0  0  0
   -4.5683  -19.3126  -20.8500 H   0  0  0  0  0
   -4.3362  -20.8767  -23.3708 H   0  0  0  0  0
   -6.5958  -20.3938  -22.7777 H   0  0  0  0  0
   -6.2702  -18.7604  -22.7259 H   0  0  0  0  0
   -6.1637  -19.5858  -24.1695 H   0  0  0  0  0
   -3.1679  -18.0073  -21.6799 H   0  0  0  0  0
   -2.3683  -16.8510  -24.3681 H   0  0  0  0  0
   -1.7174  -14.8368  -23.1918 H   0  0  0  0  0
   -2.3865  -15.5092  -21.6934 H   0  0  0  0  0
   -4.6322  -15.3021  -21.2187 H   0  0  0  0  0
   -6.8898  -14.5915  -21.9427 H   0  0  0  0  0
   -7.3316  -13.9757  -24.3125 H   0  0  0  0  0
   -5.4623  -14.0967  -25.9520 H   0  0  0  0  0
   -3.2091  -14.8006  -25.2348 H   0  0  0  0  0
   -0.4173  -18.8191  -24.4997 H   0  0  0  0  0
    0.1287  -15.4060  -23.8134 H   0  0  0  0  0
    0.7630  -16.7599  -24.7591 H   0  0  0  0  0
    2.0770  -17.2448  -22.4942 H   0  0  0  0  0
    3.1445  -16.7671  -24.7399 H   0  0  0  0  0
    2.8753  -15.0235  -24.4981 H   0  0  0  0  0
    4.0282  -15.8986  -23.4609 H   0  0  0  0  0
    3.6288  -16.0329  -21.1891 H   0  0  0  0  0
    2.3016  -14.1654  -19.4345 H   0  0  0  0  0
    3.9972  -15.7814  -18.6251 H   0  0  0  0  0
    5.2441  -14.9816  -19.6133 H   0  0  0  0  0
    4.4984  -14.1148  -18.2482 H   0  0  0  0  0
    4.5881  -11.9965  -22.1238 H   0  0  0  0  0
    4.5371  -13.7615  -22.1844 H   0  0  0  0  0
  1  2  4  0  0  0
  1  5  4  0  0  0
  2  3  4  0  0  0
  3  4  4  0  0  0
  4  5  4  0  0  0
  5  6  1  0  0  0
  6  7  1  0  0  0
  7  8  1  0  0  0
  7  9  1  0  0  0
  9 10  2  0  0  0
  9 11  1  0  0  0
 11 12  1  0  0  0
 12 13  1  0  0  0
 12 20  1  0  0  0
 13 14  1  0  0  0
 14 15  4  0  0  0
 14 19  4  0  0  0
 15 16  4  0  0  0
 16 17  4  0  0  0
 17 18  4  0  0  0
 18 19  4  0  0  0
 20 21  1  0  0  0
 20 22  2  0  0  0
 20 23  1  0  0  0
 23 24  1  0  0  0
 24 25  1  0  0  0
 24 26  1  0  0  0
 26 27  2  0  0  0
 26 28  1  0  0  0
 28 29  1  0  0  0
 29 30  1  0  0  0
 29 31  1  0  0  0
 31 32  2  0  0  0
 31 33  1  0  0  0
  6 34  1  0  0  0
  6 35  1  0  0  0
  7 36  1  0  0  0
  8 37  1  0  0  0
  8 38  1  0  0  0
  8 39  1  0  0  0
 11 40  1  0  0  0
 12 41  1  0  0  0
 13 42  1  0  0  0
 13 43  1  0  0  0
 15 44  1  0  0  0
 16 45  1  0  0  0
 17 46  1  0  0  0
 18 47  1  0  0  0
 19 48  1  0  0  0
 21 49  1  0  0  0
 23 50  1  0  0  0
 23 51  1  0  0  0
 24 52  1  0  0  0
 25 53  1  0  0  0
 25 54  1  0  0  0
 25 55  1  0  0  0
 28 56  1  0  0  0
 29 57  1  0  0  0
 30 58  1  0  0  0
 30 59  1  0  0  0
 30 60  1  0  0  0
 33 61  1  0  0  0
 33 62  1  0  0  0
M  END
$$$$
