4dcs_ligand
  -I-interpret- 

 42 44  0  0  0  0  0  0  0  0999 V2000
  -14.1270   -8.5680  -33.7830 P   0  0  0  0  0
  -14.3870   -7.1050  -34.0250 O   0  0  0  0  0
  -12.8860   -9.0490  -34.4980 O   0  0  0  0  0
  -14.2200   -8.9980  -32.3420 O   0  0  0  0  0
  -15.3160   -9.3420  -34.5400 O   0  0  0  0  0
  -16.6060   -9.9890  -33.8310 P   0  0  0  0  0
  -16.2960  -11.2950  -33.1390 O   0  0  0  0  0
  -17.3480   -8.9170  -33.0590 O   0  0  0  0  0
  -17.4690  -10.3900  -35.1320 O   0  0  0  0  0
  -17.8500   -9.4520  -36.1420 C   0  0  0  0  0
  -18.9820  -10.0460  -36.9740 C   0  0  0  0  0
  -18.4970  -11.1360  -37.7710 O   0  0  0  0  0
  -20.0910  -10.6060  -36.0910 C   0  0  0  0  0
  -21.3500  -10.3140  -36.6900 O   0  0  0  0  0
  -19.9010  -12.1080  -36.1490 C   0  0  0  0  0
  -21.1360  -12.8100  -35.9960 O   0  0  0  0  0
  -19.2920  -12.3110  -37.5300 C   0  0  0  0  0
  -18.4950  -13.5580  -37.5360 N   0  0  0  0  0
  -17.5200  -13.8770  -36.6610 C   0  0  0  0  0
  -17.0000  -15.0980  -36.9440 N   0  0  0  0  0
  -17.6400  -15.5800  -38.0240 C   0  0  0  0  0
  -17.5720  -16.8090  -38.8480 C   0  0  0  0  0
  -16.7650  -17.7250  -38.5940 O   0  0  0  0  0
  -18.4230  -16.9180  -39.8780 N   0  0  0  0  0
  -19.3140  -15.9570  -40.2010 C   0  0  0  0  0
  -20.1210  -16.1570  -41.2780 N   0  0  0  0  0
  -19.4130  -14.7970  -39.4920 N   0  0  0  0  0
  -18.6290  -14.5630  -38.4110 C   0  0  0  0  0
  -12.7564   -9.9831  -34.3185 H   0  0  0  0  0
  -14.0414   -9.9391  -32.2779 H   0  0  0  0  0
  -17.4740   -8.1489  -33.6209 H   0  0  0  0  0
  -16.9959   -9.2383  -36.7847 H   0  0  0  0  0
  -18.1855   -8.5262  -35.6746 H   0  0  0  0  0
  -19.3678   -9.2389  -37.5968 H   0  0  0  0  0
  -20.0610  -10.1982  -35.0806 H   0  0  0  0  0
  -22.0540  -10.6639  -36.1391 H   0  0  0  0  0
  -19.2772  -12.4959  -35.3437 H   0  0  0  0  0
  -20.9729  -13.7551  -36.0384 H   0  0  0  0  0
  -20.0343  -12.4262  -38.3198 H   0  0  0  0  0
  -17.1939  -13.2407  -35.8383 H   0  0  0  0  0
  -20.0441  -17.0176  -41.8201 H   0  0  0  0  0
  -20.0904  -14.0911  -39.7805 H   0  0  0  0  0
  1  2  2  0  0  0
  1  3  1  0  0  0
  1  4  1  0  0  0
  1  5  1  0  0  0
  5  6  1  0  0  0
  6  7  2  0  0  0
  6  8  1  0  0  0
  6  9  1  0  0  0
  9 10  1  0  0  0
 10 11  1  0  0  0
 11 12  1  0  0  0
 11 13  1  0  0  0
 12 17  1  0  0  0
 13 14  1  0  0  0
 13 15  1  0  0  0
 15 16  1  0  0  0
 15 17  1  0  0  0
 17 18  1  0  0  0
 18 19  4  0  0  0
 18 28  4  0  0  0
 19 20  4  0  0  0
 20 21  4  0  0  0
 21 22  1  0  0  0
 21 28  4  0  0  0
 22 23  2  0  0  0
 22 24  1  0  0  0
 24 25  4  0  0  0
 25 26  2  0  0  0
 25 27  1  0  0  0
 27 28  1  0  0  0
  3 29  1  0  0  0
  4 30  1  0  0  0
  8 31  1  0  0  0
 10 32  1  0  0  0
 10 33  1  0  0  0
 11 34  1  0  0  0
 13 35  1  0  0  0
 14 36  1  0  0  0
 15 37  1  0  0  0
 16 38  1  0  0  0
 17 39  1  0  0  0
 19 40  1  0  0  0
 26 41  1  0  0  0
 27 42  1  0  0  0
M  END
$$$$
