4dfw_ligand
  -I-interpret- 

111113  0  0  0  0  0  0  0  0999 V2000
  -23.4620   -5.3990   25.4210 C   0  0  0  0  0
  -23.3230   -4.2810   24.9950 O   0  0  0  0  0
  -24.5710   -5.7650   26.3780 C   0  0  0  0  0
  -22.4030   -6.2410   25.2890 N   0  0  0  0  0
  -21.2690   -5.9470   24.4180 C   0  0  0  0  0
  -21.8260   -5.6390   23.0500 C   0  0  0  0  0
  -22.7940   -6.2130   22.5750 O   0  0  0  0  0
  -22.2830   -7.5840   25.8580 C   0  0  0  0  0
  -21.4070   -8.2890   24.8450 C   0  0  0  0  0
  -20.3840   -7.2050   24.4260 C   0  0  0  0  0
  -20.8450   -9.4260   25.4530 O   0  0  0  0  0
  -19.9390  -10.1860   24.6780 C   0  0  0  0  0
  -19.5470  -11.4510   25.4240 C   0  0  0  0  0
  -18.4840  -12.2080   24.5980 C   0  0  0  0  0
  -18.2240  -13.5900   25.1880 C   0  0  0  0  0
  -17.4250  -13.4530   26.4280 C   0  0  0  0  0
  -18.0220  -13.6300   27.6810 C   0  0  0  0  0
  -17.2210  -13.4580   28.8270 C   0  0  0  0  0
  -15.8770  -13.1490   28.6810 C   0  0  0  0  0
  -15.3170  -12.9890   27.4190 C   0  0  0  0  0
  -16.0750  -13.1460   26.2870 C   0  0  0  0  0
  -21.1600   -4.7580   22.2680 N   0  0  0  0  0
  -21.6390   -4.5200   20.9300 C   0  0  0  0  0
  -21.0040   -5.5590   20.0350 C   0  0  0  0  0
  -20.0330   -6.2150   20.4070 O   0  0  0  0  0
  -21.1020   -3.1550   20.5030 C   0  0  0  0  0
  -21.5780   -2.0380   21.4220 C   0  0  0  0  0
  -20.7880   -0.7770   21.1280 C   0  0  0  0  0
  -23.0530   -1.7620   21.1680 C   0  0  0  0  0
  -21.6220   -5.8380   18.8660 N   0  0  0  0  0
  -21.1210   -6.8970   18.0190 C   0  0  0  0  0
  -21.6340   -6.7170   16.6070 C   0  0  0  0  0
  -22.4670   -5.8740   16.2860 O   0  0  0  0  0
  -21.5290   -8.2990   18.5580 C   0  0  0  0  0
  -23.0350   -8.4020   18.7210 C   0  0  0  0  0
  -23.8980   -8.4420   17.6600 N   0  0  0  0  0
  -23.7270   -8.4680   19.9060 C   0  0  0  0  0
  -25.1180   -8.5440   18.1650 C   0  0  0  0  0
  -25.0490   -8.5660   19.5130 N   0  0  0  0  0
  -20.9980   -7.4670   15.6960 N   0  0  0  0  0
  -21.3830   -7.5020   14.2990 C   0  0  0  0  0
  -22.7570   -8.1220   14.0700 C   0  0  0  0  0
  -23.4900   -8.5030   14.9660 O   0  0  0  0  0
  -20.3070   -8.2410   13.5160 C   0  0  0  0  0
  -20.1640   -9.5790   13.9510 O   0  0  0  0  0
  -23.1960   -8.1470   12.8180 N   0  0  0  0  0
  -24.5480   -8.5600   12.5610 C   0  0  0  0  0
  -24.7400   -8.3550   11.0460 C   0  0  0  0  0
  -26.1840   -8.7300   10.6620 C   0  0  0  0  0
  -24.5660   -7.0190   10.7410 O   0  0  0  0  0
  -23.2990   -6.5870    9.8260 P   0  0  0  0  0
  -23.4450   -7.3050    8.4190 O   0  0  0  0  0
  -23.4430   -5.1090    9.7580 O   0  0  0  0  0
  -21.9770   -7.0160   10.5470 O   0  0  0  0  0
  -24.7670  -10.0140   12.8810 C   0  0  0  0  0
  -23.9830  -10.9150   12.5870 O   0  0  0  0  0
  -25.9930  -10.3580   13.3810 N   0  0  0  0  0
  -24.4759   -5.1706   27.2867 H   0  0  0  0  0
  -25.5345   -5.5637   25.9097 H   0  0  0  0  0
  -24.5004   -6.8241   26.6260 H   0  0  0  0  0
  -20.6713   -5.0932   24.7373 H   0  0  0  0  0
  -23.2455   -8.0737   26.0059 H   0  0  0  0  0
  -21.8620   -7.5868   26.8634 H   0  0  0  0  0
  -21.9191   -8.6693   23.9612 H   0  0  0  0  0
  -19.5234   -7.1326   25.0911 H   0  0  0  0  0
  -19.8972   -7.4058   23.4716 H   0  0  0  0  0
  -19.0454   -9.5917   24.4872 H   0  0  0  0  0
  -20.4153  -10.4590   23.7363 H   0  0  0  0  0
  -20.4238  -12.0830   25.5648 H   0  0  0  0  0
  -19.1393  -11.1918   26.4011 H   0  0  0  0  0
  -17.5549  -11.6383   24.6139 H   0  0  0  0  0
  -18.8487  -12.3242   23.5774 H   0  0  0  0  0
  -17.6760  -14.1965   24.4669 H   0  0  0  0  0
  -19.1740  -14.0721   25.4185 H   0  0  0  0  0
  -19.0761  -13.8933   27.7679 H   0  0  0  0  0
  -17.6544  -13.5670   29.8212 H   0  0  0  0  0
  -15.2524  -13.0302   29.5664 H   0  0  0  0  0
  -14.2609  -12.7353   27.3278 H   0  0  0  0  0
  -15.6299  -13.0328   25.2985 H   0  0  0  0  0
  -20.3349   -4.2718   22.6189 H   0  0  0  0  0
  -22.7268   -4.5602   20.8740 H   0  0  0  0  0
  -21.4667   -2.9460   19.4973 H   0  0  0  0  0
  -20.0134   -3.1896   20.5462 H   0  0  0  0  0
  -21.4319   -2.3384   22.4596 H   0  0  0  0  0
  -19.7282   -0.9654   21.2998 H   0  0  0  0  0
  -20.9429   -0.4867   20.0889 H   0  0  0  0  0
  -21.1271    0.0241   21.7848 H   0  0  0  0  0
  -23.1915   -1.4613   20.1295 H   0  0  0  0  0
  -23.6297   -2.6655   21.3660 H   0  0  0  0  0
  -23.3904   -0.9622   21.8272 H   0  0  0  0  0
  -22.4416   -5.3016   18.5814 H   0  0  0  0  0
  -20.0325   -6.8404   18.0202 H   0  0  0  0  0
  -21.0608   -8.4495   19.5308 H   0  0  0  0  0
  -21.2017   -9.0564   17.8457 H   0  0  0  0  0
  -23.3270   -8.4478   20.9198 H   0  0  0  0  0
  -26.0370   -8.6014   17.5816 H   0  0  0  0  0
  -20.2089   -8.0378   15.9990 H   0  0  0  0  0
  -21.4674   -6.4746   13.9449 H   0  0  0  0  0
  -19.3580   -7.7278   13.6710 H   0  0  0  0  0
  -20.5957   -8.2521   12.4650 H   0  0  0  0  0
  -19.4788  -10.0104   13.4353 H   0  0  0  0  0
  -22.5825   -7.8769   12.0492 H   0  0  0  0  0
  -25.2458   -7.9923   13.1765 H   0  0  0  0  0
  -24.0210   -8.9734   10.5087 H   0  0  0  0  0
  -26.3667   -9.7741   10.9162 H   0  0  0  0  0
  -26.8807   -8.0944   11.2086 H   0  0  0  0  0
  -26.3227   -8.5859    9.5905 H   0  0  0  0  0
  -23.3422   -8.2527    8.5324 H   0  0  0  0  0
  -21.9227   -7.9742   10.5697 H   0  0  0  0  0
  -26.2371  -11.3410   13.5015 H   0  0  0  0  0
  -26.6630   -9.6315   13.6333 H   0  0  0  0  0
  1  2  2  0  0  0
  1  3  1  0  0  0
  1  4  1  0  0  0
  4  5  1  0  0  0
  4  8  1  0  0  0
  5  6  1  0  0  0
  5 10  1  0  0  0
  6  7  2  0  0  0
  6 22  1  0  0  0
  8  9  1  0  0  0
  9 10  1  0  0  0
  9 11  1  0  0  0
 11 12  1  0  0  0
 12 13  1  0  0  0
 13 14  1  0  0  0
 14 15  1  0  0  0
 15 16  1  0  0  0
 16 17  4  0  0  0
 16 21  4  0  0  0
 17 18  4  0  0  0
 18 19  4  0  0  0
 19 20  4  0  0  0
 20 21  4  0  0  0
 22 23  1  0  0  0
 23 24  1  0  0  0
 23 26  1  0  0  0
 24 25  2  0  0  0
 24 30  1  0  0  0
 26 27  1  0  0  0
 27 28  1  0  0  0
 27 29  1  0  0  0
 30 31  1  0  0  0
 31 32  1  0  0  0
 31 34  1  0  0  0
 32 33  2  0  0  0
 32 40  1  0  0  0
 34 35  1  0  0  0
 35 36  4  0  0  0
 35 37  4  0  0  0
 36 38  4  0  0  0
 37 39  4  0  0  0
 38 39  4  0  0  0
 40 41  1  0  0  0
 41 42  1  0  0  0
 41 44  1  0  0  0
 42 43  2  0  0  0
 42 46  1  0  0  0
 44 45  1  0  0  0
 46 47  1  0  0  0
 47 48  1  0  0  0
 47 55  1  0  0  0
 48 49  1  0  0  0
 48 50  1  0  0  0
 50 51  1  0  0  0
 51 52  1  0  0  0
 51 53  2  0  0  0
 51 54  1  0  0  0
 55 56  2  0  0  0
 55 57  1  0  0  0
  3 58  1  0  0  0
  3 59  1  0  0  0
  3 60  1  0  0  0
  5 61  1  0  0  0
  8 62  1  0  0  0
  8 63  1  0  0  0
  9 64  1  0  0  0
 10 65  1  0  0  0
 10 66  1  0  0  0
 12 67  1  0  0  0
 12 68  1  0  0  0
 13 69  1  0  0  0
 13 70  1  0  0  0
 14 71  1  0  0  0
 14 72  1  0  0  0
 15 73  1  0  0  0
 15 74  1  0  0  0
 17 75  1  0  0  0
 18 76  1  0  0  0
 19 77  1  0  0  0
 20 78  1  0  0  0
 21 79  1  0  0  0
 22 80  1  0  0  0
 23 81  1  0  0  0
 26 82  1  0  0  0
 26 83  1  0  0  0
 27 84  1  0  0  0
 28 85  1  0  0  0
 28 86  1  0  0  0
 28 87  1  0  0  0
 29 88  1  0  0  0
 29 89  1  0  0  0
 29 90  1  0  0  0
 30 91  1  0  0  0
 31 92  1  0  0  0
 34 93  1  0  0  0
 34 94  1  0  0  0
 37 95  1  0  0  0
 38 96  1  0  0  0
 40 97  1  0  0  0
 41 98  1  0  0  0
 44 99  1  0  0  0
 44100  1  0  0  0
 45101  1  0  0  0
 46102  1  0  0  0
 47103  1  0  0  0
 48104  1  0  0  0
 49105  1  0  0  0
 49106  1  0  0  0
 49107  1  0  0  0
 52108  1  0  0  0
 54109  1  0  0  0
 57110  1  0  0  0
 57111  1  0  0  0
M  END
$$$$
