4dt6_ligand
  -I-interpret- 

 55 58  0  0  0  0  0  0  0  0999 V2000
    2.2320   -0.7330  -24.5820 C   0  0  0  0  0
    1.2540    0.4130  -24.4980 N   0  3  0  0  0
    3.4820   -0.3840  -23.8860 O   0  0  0  0  0
    5.8690    3.0290  -23.9540 P   0  0  0  0  0
    0.3330    4.9030  -15.9230 Cl  0  0  0  0  0
    4.5690   -0.5290  -24.8490 C   0  0  0  0  0
    0.4000    2.3720  -24.1940 N   0  0  0  0  0
    2.9990   -2.3210  -26.2690 O   0  0  0  0  0
    3.8680   -0.0840  -26.1390 C   0  0  0  0  0
   -2.7320    0.6820  -25.2930 N   0  0  0  0  0
    4.6720   -0.4400  -27.2750 O   0  0  0  0  0
    2.6350   -0.9440  -26.0500 C   0  0  0  0  0
   -0.7640   -0.7370  -25.2120 N   0  0  0  0  0
    5.0630    1.6550  -24.2670 O   0  0  0  0  0
    5.6830    0.4210  -24.4600 C   0  0  0  0  0
   -2.8170   -1.6110  -25.8790 N   0  0  0  0  0
   -2.4360    2.8840  -24.6910 O   0  0  0  0  0
   -0.5780    1.5780  -24.6330 C   0  0  0  0  0
    0.9740    4.0330  -21.6670 O   0  0  0  0  0
   -0.0280    0.3150  -24.8060 C   0  0  0  0  0
    7.2220    2.9360  -24.6220 O   0  0  0  0  0
    1.5280    1.6750  -24.1350 C   0  0  0  0  0
    5.7970    3.2090  -22.3350 O   0  0  0  0  0
   -2.0930   -0.5700  -25.4620 C   0  0  0  0  0
    4.8800    4.2290  -24.4810 O   0  0  0  0  0
   -1.9410    1.7690  -24.8670 C   0  0  0  0  0
    0.3070    3.8310  -23.9170 C   0  0  0  0  0
   -0.1710    4.1700  -22.5240 C   0  0  0  0  0
    0.7480    4.2660  -20.3320 C   0  0  0  0  0
   -0.4530    4.7860  -19.8360 C   0  0  0  0  0
   -0.6000    4.9830  -18.4720 C   0  0  0  0  0
    0.4510    4.6490  -17.6230 C   0  0  0  0  0
    1.6370    4.1590  -18.1040 C   0  0  0  0  0
    1.7800    3.9610  -19.4510 C   0  0  0  0  0
    1.7583   -1.6122  -24.1452 H   0  0  0  0  0
    5.0225   -1.5174  -24.9227 H   0  0  0  0  0
    2.2143   -2.8711  -26.2127 H   0  0  0  0  0
    3.6774    0.9841  -26.2442 H   0  0  0  0  0
    5.4486    0.1236  -27.3052 H   0  0  0  0  0
    1.8522   -0.7049  -26.7699 H   0  0  0  0  0
   -0.3298   -1.6522  -25.3315 H   0  0  0  0  0
    6.4522    0.4744  -25.2304 H   0  0  0  0  0
    6.2000    0.0865  -23.5606 H   0  0  0  0  0
   -3.8124   -1.4962  -26.0698 H   0  0  0  0  0
    2.5050    2.0602  -23.8430 H   0  0  0  0  0
    4.8784    3.2525  -22.0595 H   0  0  0  0  0
    4.0533    4.1979  -23.9940 H   0  0  0  0  0
   -0.4207    4.2444  -24.6154 H   0  0  0  0  0
    1.3113    4.2419  -24.0204 H   0  0  0  0  0
   -0.5768    5.1807  -22.4814 H   0  0  0  0  0
   -0.9786    3.5077  -22.2121 H   0  0  0  0  0
   -1.2667    5.0342  -20.5174 H   0  0  0  0  0
   -1.5260    5.3939  -18.0697 H   0  0  0  0  0
    2.4563    3.9298  -17.4225 H   0  0  0  0  0
    2.7159    3.5586  -19.8385 H   0  0  0  0  0
  2  1  1  0  0  0
  1  3  1  0  0  0
  1 12  1  0  0  0
  2 20  4  0  0  0
 22  2  4  0  0  0
  3  6  1  0  0  0
 14  4  1  0  0  0
  4 21  2  0  0  0
  4 23  1  0  0  0
  4 25  1  0  0  0
 32  5  1  0  0  0
  9  6  1  0  0  0
  6 15  1  0  0  0
  7 18  4  0  0  0
  7 22  4  0  0  0
 27  7  1  0  0  0
 12  8  1  0  0  0
  9 11  1  0  0  0
 12  9  1  0  0  0
 10 24  4  0  0  0
 26 10  1  0  0  0
 20 13  1  0  0  0
 13 24  1  0  0  0
 15 14  1  0  0  0
 24 16  2  0  0  0
 26 17  2  0  0  0
 18 20  4  0  0  0
 18 26  1  0  0  0
 19 28  1  0  0  0
 29 19  1  0  0  0
 28 27  1  0  0  0
 30 29  4  0  0  0
 29 34  4  0  0  0
 31 30  4  0  0  0
 31 32  4  0  0  0
 32 33  4  0  0  0
 33 34  4  0  0  0
  1 35  1  0  0  0
  6 36  1  0  0  0
  8 37  1  0  0  0
  9 38  1  0  0  0
 11 39  1  0  0  0
 12 40  1  0  0  0
 13 41  1  0  0  0
 15 42  1  0  0  0
 15 43  1  0  0  0
 16 44  1  0  0  0
 22 45  1  0  0  0
 23 46  1  0  0  0
 25 47  1  0  0  0
 27 48  1  0  0  0
 27 49  1  0  0  0
 28 50  1  0  0  0
 28 51  1  0  0  0
 30 52  1  0  0  0
 31 53  1  0  0  0
 33 54  1  0  0  0
 34 55  1  0  0  0
M  END
$$$$
