4e9c_ligand
  -I-interpret- 

108110  0  0  0  0  0  0  0  0999 V2000
   15.1810  -13.0560   17.7780 N   0  3  0  0  0
   14.3030  -11.9500   17.4040 C   0  0  0  0  0
   13.0410  -12.4390   16.6750 C   0  0  0  0  0
   12.9530  -13.6190   16.3290 O   0  0  0  0  0
   15.1900  -11.0970   16.4790 C   0  0  0  0  0
   16.5870  -11.4460   16.8600 C   0  0  0  0  0
   16.5370  -12.9010   17.2240 C   0  0  0  0  0
   12.0540  -11.5430   16.4620 N   0  0  0  0  0
   10.7830  -11.9040   15.8230 C   0  0  0  0  0
   10.9160  -12.2720   14.3470 C   0  0  0  0  0
   11.8390  -11.8120   13.6730 O   0  0  0  0  0
    9.9450  -10.6250   15.9460 C   0  0  0  0  0
   10.6400   -9.7780   16.9460 C   0  0  0  0  0
   12.0780  -10.1300   16.8740 C   0  0  0  0  0
    9.9740  -13.0770   13.8620 N   0  0  0  0  0
    9.9620  -13.5440   12.4730 C   0  0  0  0  0
    9.0310  -12.7300   11.5660 C   0  0  0  0  0
    8.8990  -13.0280   10.3820 O   0  0  0  0  0
    9.5850  -15.0280   12.4240 C   0  0  0  0  0
   10.6970  -16.0860   12.3490 C   0  0  0  0  0
   12.0090  -15.6640   13.0030 C   0  0  0  0  0
   10.1990  -17.4130   12.9070 C   0  0  0  0  0
    8.3780  -11.7140   12.1240 N   0  0  0  0  0
    7.4810  -10.8630   11.3390 C   0  0  0  0  0
    7.2980   -9.4820   11.9500 C   0  0  0  0  0
    7.5370   -9.2830   13.1430 O   0  0  0  0  0
    6.1180  -11.5370   11.1020 C   0  0  0  0  0
    5.3910  -11.9100   12.3560 C   0  0  0  0  0
    4.7520  -10.9850   13.1530 N   0  0  0  0  0
    5.1850  -13.1150   12.9420 C   0  0  0  0  0
    4.1950  -11.5990   14.1820 C   0  0  0  0  0
    4.4420  -12.8930   14.0770 N   0  0  0  0  0
    6.8690   -8.5330   11.1200 N   0  0  0  0  0
    6.5390   -7.1860   11.5830 C   0  0  0  0  0
    5.3020   -7.2200   12.4790 C   0  0  0  0  0
    4.7280   -8.2870   12.7100 O   0  0  0  0  0
    6.3350   -6.2340   10.3940 C   0  0  0  0  0
    5.3170   -6.6810    9.5150 O   0  0  0  0  0
    4.9080   -6.0580   12.9930 N   0  0  0  0  0
    3.8150   -5.9770   13.9700 C   0  0  0  0  0
    3.6160   -4.5260   14.4120 C   0  0  0  0  0
    2.5190   -4.3920   15.4700 C   0  0  0  0  0
    4.8470   -4.0610   14.9590 O   0  0  0  0  0
    5.7650   -2.9360   14.2370 P   0  0  0  0  0
    4.8340   -1.7800   13.9900 O   0  0  0  0  0
    6.2790   -3.5640   12.9650 O   0  0  0  0  0
    6.8410   -2.6510   15.2580 O   0  0  0  0  0
    2.5320   -6.5670   13.4590 C   0  0  0  0  0
    2.0070   -6.1580   12.4140 O   0  0  0  0  0
    2.0300   -7.5530   14.2030 N   0  0  0  0  0
    0.7420   -8.1690   13.9110 C   0  0  0  0  0
   -0.3520   -7.5990   14.8090 C   0  0  0  0  0
   -0.0730   -6.8540   15.7530 O   0  0  0  0  0
    0.8270   -9.6820   14.0760 C   0  0  0  0  0
   -1.5550   -7.8250   14.4940 N   0  0  0  0  0
   14.7824  -13.9178   17.4055 H   0  0  0  0  0
   15.2537  -13.0737   18.7953 H   0  0  0  0  0
   13.9275  -11.4007   18.2673 H   0  0  0  0  0
   14.9920  -10.0317   16.5975 H   0  0  0  0  0
   14.9937  -11.3030   15.4268 H   0  0  0  0  0
   16.9453  -10.8341   17.6878 H   0  0  0  0  0
   17.2874  -11.2565   16.0466 H   0  0  0  0  0
   16.7238  -13.5565   16.3734 H   0  0  0  0  0
   17.3173  -13.1877   17.9291 H   0  0  0  0  0
   10.3548  -12.7868   16.2978 H   0  0  0  0  0
    8.9249  -10.8489   16.2579 H   0  0  0  0  0
    9.8590  -10.1146   14.9867 H   0  0  0  0  0
   10.2459   -9.9548   17.9467 H   0  0  0  0  0
   10.4873   -8.7200   16.7330 H   0  0  0  0  0
   12.6330   -9.4977   16.1810 H   0  0  0  0  0
   12.5983   -9.9748   17.8192 H   0  0  0  0  0
    9.2266  -13.3828   14.4851 H   0  0  0  0  0
   10.9708  -13.4016   12.0856 H   0  0  0  0  0
    9.0292  -15.1428   11.4934 H   0  0  0  0  0
    9.0838  -15.2187   13.3730 H   0  0  0  0  0
   10.9356  -16.2037   11.2920 H   0  0  0  0  0
   12.3867  -14.7675   12.5113 H   0  0  0  0  0
   11.8366  -15.4555   14.0589 H   0  0  0  0  0
   12.7378  -16.4685   12.9045 H   0  0  0  0  0
    9.9020  -17.2797   13.9473 H   0  0  0  0  0
    9.3428  -17.7524   12.3240 H   0  0  0  0  0
   10.9970  -18.1531   12.8476 H   0  0  0  0  0
    8.5046  -11.5240   13.1181 H   0  0  0  0  0
    7.9663  -10.7259   10.3727 H   0  0  0  0  0
    6.3068  -12.4598   10.5534 H   0  0  0  0  0
    5.4932  -10.8200   10.5695 H   0  0  0  0  0
    5.5418  -14.0795   12.5807 H   0  0  0  0  0
    3.6287  -11.1201   14.9808 H   0  0  0  0  0
    6.7674   -8.7530   10.1292 H   0  0  0  0  0
    7.3753   -6.8079   12.1710 H   0  0  0  0  0
    7.2689   -6.1878    9.8339 H   0  0  0  0  0
    6.0393   -5.2612   10.7868 H   0  0  0  0  0
    5.2251   -6.0579    8.7905 H   0  0  0  0  0
    5.3775   -5.2009   12.7007 H   0  0  0  0  0
    4.1036   -6.5787   14.8318 H   0  0  0  0  0
    3.3113   -3.9377   13.5465 H   0  0  0  0  0
    1.5760   -4.7556   15.0618 H   0  0  0  0  0
    2.7879   -4.9809   16.3470 H   0  0  0  0  0
    2.4143   -3.3444   15.7523 H   0  0  0  0  0
    6.8652   -4.2923   13.1832 H   0  0  0  0  0
    7.3942   -3.4284   15.3637 H   0  0  0  0  0
    2.5658   -7.8876   15.0039 H   0  0  0  0  0
    0.4852   -7.9426   12.8762 H   0  0  0  0  0
    1.5750  -10.0796   13.3900 H   0  0  0  0  0
    1.1102   -9.9190   15.1015 H   0  0  0  0  0
   -0.1436  -10.1255   13.8540 H   0  0  0  0  0
   -2.3110   -7.3895   15.0224 H   0  0  0  0  0
   -1.7698   -8.4429   13.7114 H   0  0  0  0  0
  1  2  1  0  0  0
  1  7  1  0  0  0
  2  3  1  0  0  0
  2  5  1  0  0  0
  3  4  2  0  0  0
  3  8  1  0  0  0
  5  6  1  0  0  0
  6  7  1  0  0  0
  8  9  1  0  0  0
  8 14  1  0  0  0
  9 10  1  0  0  0
  9 12  1  0  0  0
 10 11  2  0  0  0
 10 15  1  0  0  0
 12 13  1  0  0  0
 13 14  1  0  0  0
 15 16  1  0  0  0
 16 17  1  0  0  0
 16 19  1  0  0  0
 17 18  2  0  0  0
 17 23  1  0  0  0
 19 20  1  0  0  0
 20 21  1  0  0  0
 20 22  1  0  0  0
 23 24  1  0  0  0
 24 25  1  0  0  0
 24 27  1  0  0  0
 25 26  2  0  0  0
 25 33  1  0  0  0
 27 28  1  0  0  0
 28 29  4  0  0  0
 28 30  4  0  0  0
 29 31  4  0  0  0
 30 32  4  0  0  0
 31 32  4  0  0  0
 33 34  1  0  0  0
 34 35  1  0  0  0
 34 37  1  0  0  0
 35 36  2  0  0  0
 35 39  1  0  0  0
 37 38  1  0  0  0
 39 40  1  0  0  0
 40 41  1  0  0  0
 40 48  1  0  0  0
 41 42  1  0  0  0
 41 43  1  0  0  0
 43 44  1  0  0  0
 44 45  2  0  0  0
 44 46  1  0  0  0
 44 47  1  0  0  0
 48 49  2  0  0  0
 48 50  1  0  0  0
 50 51  1  0  0  0
 51 52  1  0  0  0
 51 54  1  0  0  0
 52 53  2  0  0  0
 52 55  1  0  0  0
  1 56  1  0  0  0
  1 57  1  0  0  0
  2 58  1  0  0  0
  5 59  1  0  0  0
  5 60  1  0  0  0
  6 61  1  0  0  0
  6 62  1  0  0  0
  7 63  1  0  0  0
  7 64  1  0  0  0
  9 65  1  0  0  0
 12 66  1  0  0  0
 12 67  1  0  0  0
 13 68  1  0  0  0
 13 69  1  0  0  0
 14 70  1  0  0  0
 14 71  1  0  0  0
 15 72  1  0  0  0
 16 73  1  0  0  0
 19 74  1  0  0  0
 19 75  1  0  0  0
 20 76  1  0  0  0
 21 77  1  0  0  0
 21 78  1  0  0  0
 21 79  1  0  0  0
 22 80  1  0  0  0
 22 81  1  0  0  0
 22 82  1  0  0  0
 23 83  1  0  0  0
 24 84  1  0  0  0
 27 85  1  0  0  0
 27 86  1  0  0  0
 30 87  1  0  0  0
 31 88  1  0  0  0
 33 89  1  0  0  0
 34 90  1  0  0  0
 37 91  1  0  0  0
 37 92  1  0  0  0
 38 93  1  0  0  0
 39 94  1  0  0  0
 40 95  1  0  0  0
 41 96  1  0  0  0
 42 97  1  0  0  0
 42 98  1  0  0  0
 42 99  1  0  0  0
 46100  1  0  0  0
 47101  1  0  0  0
 50102  1  0  0  0
 51103  1  0  0  0
 54104  1  0  0  0
 54105  1  0  0  0
 54106  1  0  0  0
 55107  1  0  0  0
 55108  1  0  0  0
M  END
$$$$
