4emf_ligand
  -I-interpret- 

 46 48  0  0  0  0  0  0  0  0999 V2000
   -6.0820  -21.3320  -21.6960 P   0  0  0  0  0
   -7.3790  -22.0970  -21.9020 O   0  0  0  0  0
   -5.7330  -20.2010  -22.5810 O   0  0  0  0  0
   -4.8800  -22.4190  -21.6680 O   0  0  0  0  0
   -6.0280  -21.0190  -20.1080 O   0  0  0  0  0
   -4.1330  -23.2600  -22.8240 P   0  0  0  0  0
   -4.4320  -22.6630  -24.1840 O   0  0  0  0  0
   -2.6890  -23.1200  -22.4910 O   0  0  0  0  0
   -4.6720  -24.6590  -22.6530 O   0  0  0  0  0
   -4.8520  -20.5280  -19.4610 C   0  0  0  0  0
   -4.5140  -21.2830  -18.1860 C   0  0  0  0  0
   -5.7480  -21.6040  -17.5590 O   0  0  0  0  0
   -3.8140  -22.6120  -18.4780 C   0  0  0  0  0
   -3.1960  -23.1630  -17.2830 O   0  0  0  0  0
   -4.9950  -23.4680  -18.8290 C   0  0  0  0  0
   -4.6930  -24.8110  -18.4820 O   0  0  0  0  0
   -6.0450  -22.9560  -17.8740 C   0  0  0  0  0
   -7.4150  -22.9460  -18.3650 N   0  3  0  0  0
   -7.6890  -23.5620  -19.6610 C   0  0  0  0  0
   -9.1230  -23.2650  -19.6190 N   0  0  0  0  0
   -9.8190  -23.7670  -20.8400 C   0  0  0  0  0
   -9.5530  -22.6140  -18.5180 C   0  0  0  0  0
  -10.8400  -22.1250  -18.0160 C   0  0  0  0  0
  -11.8750  -22.2950  -18.6940 O   0  0  0  0  0
  -10.8170  -21.5190  -16.8010 N   0  0  0  0  0
   -9.6800  -21.3380  -16.0710 C   0  0  0  0  0
   -9.6650  -20.7400  -14.8620 N   0  0  0  0  0
   -8.4930  -21.7860  -16.4780 N   0  0  0  0  0
   -8.3860  -22.3930  -17.6790 C   0  0  0  0  0
   -7.4462  -22.7936  -21.2448 H   0  0  0  0  0
   -5.3667  -22.7640  -24.3781 H   0  0  0  0  0
   -5.6035  -24.6724  -22.8847 H   0  0  0  0  0
   -5.0320  -19.4872  -19.1919 H   0  0  0  0  0
   -4.0176  -20.6529  -20.1511 H   0  0  0  0  0
   -3.8571  -20.6632  -17.5757 H   0  0  0  0  0
   -3.0259  -22.5340  -19.2269 H   0  0  0  0  0
   -2.7669  -23.9939  -17.5001 H   0  0  0  0  0
   -5.2825  -23.4338  -19.8798 H   0  0  0  0  0
   -5.4402  -25.3726  -18.7008 H   0  0  0  0  0
   -6.0044  -23.6508  -17.0351 H   0  0  0  0  0
   -7.0557  -24.0617  -20.3940 H   0  0  0  0  0
   -9.3920  -23.2899  -21.7221 H   0  0  0  0  0
   -9.6908  -24.8471  -20.9116 H   0  0  0  0  0
  -10.8808  -23.5294  -20.7750 H   0  0  0  0  0
  -10.5337  -20.3975  -14.4516 H   0  0  0  0  0
   -7.6704  -21.6710  -15.8859 H   0  0  0  0  0
  1  2  1  0  0  0
  1  3  2  0  0  0
  1  4  1  0  0  0
  1  5  1  0  0  0
  4  6  1  0  0  0
  5 10  1  0  0  0
  6  7  1  0  0  0
  6  8  2  0  0  0
  6  9  1  0  0  0
 10 11  1  0  0  0
 11 12  1  0  0  0
 11 13  1  0  0  0
 12 17  1  0  0  0
 13 14  1  0  0  0
 13 15  1  0  0  0
 15 16  1  0  0  0
 15 17  1  0  0  0
 17 18  1  0  0  0
 18 19  4  0  0  0
 18 29  4  0  0  0
 19 20  4  0  0  0
 20 21  1  0  0  0
 20 22  4  0  0  0
 22 23  1  0  0  0
 22 29  4  0  0  0
 23 24  2  0  0  0
 23 25  1  0  0  0
 25 26  4  0  0  0
 26 27  2  0  0  0
 26 28  1  0  0  0
 28 29  1  0  0  0
  2 30  1  0  0  0
  7 31  1  0  0  0
  9 32  1  0  0  0
 10 33  1  0  0  0
 10 34  1  0  0  0
 11 35  1  0  0  0
 13 36  1  0  0  0
 14 37  1  0  0  0
 15 38  1  0  0  0
 16 39  1  0  0  0
 17 40  1  0  0  0
 19 41  1  0  0  0
 21 42  1  0  0  0
 21 43  1  0  0  0
 21 44  1  0  0  0
 27 45  1  0  0  0
 28 46  1  0  0  0
M  END
$$$$
