4emr_ligand
  -I-interpret- 

 51 53  0  0  0  0  0  0  0  0999 V2000
  -15.5330  -16.1350   -5.0460 P   0  0  0  0  0
  -15.4690  -17.6200   -4.7220 O   0  0  0  0  0
  -14.8290  -15.0580   -4.3620 O   0  0  0  0  0
  -17.0570  -15.6620   -5.0840 O   0  0  0  0  0
  -15.0760  -15.8790   -6.5540 O   0  0  0  0  0
  -18.0860  -15.3040   -3.9230 P   0  0  0  0  0
  -17.5510  -15.2160   -2.5060 O   0  0  0  0  0
  -18.7950  -14.0690   -4.4180 O   0  0  0  0  0
  -18.9640  -16.6540   -3.9980 O   0  0  0  0  0
  -20.5000  -16.9010   -4.5510 P   0  0  0  0  0
  -20.6030  -18.3800   -4.2180 O   0  0  0  0  0
  -20.4230  -16.7570   -6.0790 O   0  0  0  0  0
  -21.6160  -16.1230   -3.7680 O   0  0  0  0  0
  -15.3230  -14.6970   -7.4000 C   0  0  0  0  0
  -16.1700  -14.8600   -8.6490 C   0  0  0  0  0
  -15.8090  -16.0990   -9.3170 O   0  0  0  0  0
  -17.6740  -14.8040   -8.2940 C   0  0  0  0  0
  -18.4940  -14.3670   -9.4330 O   0  0  0  0  0
  -17.9630  -16.2550   -8.0890 C   0  0  0  0  0
  -19.3470  -16.5730   -8.3570 O   0  0  0  0  0
  -16.9960  -16.8840   -9.0870 C   0  0  0  0  0
  -16.3930  -18.0950   -8.5170 N   0  3  0  0  0
  -16.6260  -18.7650   -7.3800 C   0  0  0  0  0
  -15.7650  -19.8260   -7.2980 N   0  0  0  0  0
  -15.7540  -20.7990   -6.1450 C   0  0  0  0  0
  -14.9900  -19.7500   -8.4000 C   0  0  0  0  0
  -13.9170  -20.5760   -8.9370 C   0  0  0  0  0
  -13.5400  -21.5660   -8.2890 O   0  0  0  0  0
  -13.3780  -20.2250  -10.1240 N   0  0  0  0  0
  -13.8000  -19.1300  -10.8500 C   0  0  0  0  0
  -13.2090  -18.8580  -12.0240 N   0  0  0  0  0
  -14.8190  -18.3420  -10.4320 N   0  0  0  0  0
  -15.4060  -18.6190   -9.2140 C   0  0  0  0  0
  -16.0317  -18.1038   -5.3310 H   0  0  0  0  0
  -17.1180  -16.0416   -2.2768 H   0  0  0  0  0
  -20.3573  -15.8272   -6.3088 H   0  0  0  0  0
  -21.5566  -15.1872   -3.9739 H   0  0  0  0  0
  -14.3396  -14.3964   -7.7614 H   0  0  0  0  0
  -15.8808  -14.0068   -6.7671 H   0  0  0  0  0
  -15.9771  -14.0369   -9.3371 H   0  0  0  0  0
  -17.8851  -14.1263   -7.4668 H   0  0  0  0  0
  -19.4175  -14.3459   -9.1716 H   0  0  0  0  0
  -17.8268  -16.6096   -7.0673 H   0  0  0  0  0
  -19.4920  -17.5112   -8.2145 H   0  0  0  0  0
  -17.6041  -17.0177   -9.9816 H   0  0  0  0  0
  -17.3814  -18.5061   -6.6381 H   0  0  0  0  0
  -15.5457  -20.2617   -5.2198 H   0  0  0  0  0
  -16.7265  -21.2859   -6.0728 H   0  0  0  0  0
  -14.9818  -21.5499   -6.3123 H   0  0  0  0  0
  -12.4588  -19.4572  -12.3682 H   0  0  0  0  0
  -15.1448  -17.5625  -11.0036 H   0  0  0  0  0
  1  2  1  0  0  0
  1  3  2  0  0  0
  1  4  1  0  0  0
  1  5  1  0  0  0
  4  6  1  0  0  0
  5 14  1  0  0  0
  6  7  1  0  0  0
  6  8  2  0  0  0
  6  9  1  0  0  0
  9 10  1  0  0  0
 10 11  2  0  0  0
 10 12  1  0  0  0
 10 13  1  0  0  0
 14 15  1  0  0  0
 15 16  1  0  0  0
 15 17  1  0  0  0
 16 21  1  0  0  0
 17 18  1  0  0  0
 17 19  1  0  0  0
 19 20  1  0  0  0
 19 21  1  0  0  0
 21 22  1  0  0  0
 22 23  4  0  0  0
 22 33  4  0  0  0
 23 24  4  0  0  0
 24 25  1  0  0  0
 24 26  4  0  0  0
 26 27  1  0  0  0
 26 33  4  0  0  0
 27 28  2  0  0  0
 27 29  1  0  0  0
 29 30  4  0  0  0
 30 31  2  0  0  0
 30 32  1  0  0  0
 32 33  1  0  0  0
  2 34  1  0  0  0
  7 35  1  0  0  0
 12 36  1  0  0  0
 13 37  1  0  0  0
 14 38  1  0  0  0
 14 39  1  0  0  0
 15 40  1  0  0  0
 17 41  1  0  0  0
 18 42  1  0  0  0
 19 43  1  0  0  0
 20 44  1  0  0  0
 21 45  1  0  0  0
 23 46  1  0  0  0
 25 47  1  0  0  0
 25 48  1  0  0  0
 25 49  1  0  0  0
 31 50  1  0  0  0
 32 51  1  0  0  0
M  END
$$$$
