4g0q_ligand
  -I-interpret- 

 34 35  0  0  0  0  0  0  0  0999 V2000
   25.6290   34.4080   36.8730 O   0  0  0  0  0
   25.4810   34.5760   38.4390 P   0  0  0  0  0
   23.9140   34.3530   38.6060 O   0  0  0  0  0
   25.9140   35.9330   38.8440 O   0  0  0  0  0
   26.2960   33.3810   39.1870 O   0  0  0  0  0
   27.6120   33.5760   39.7320 C   0  0  0  0  0
   28.2010   32.1930   40.2080 C   0  0  0  0  0
   27.7720   31.0690   39.4110 O   0  0  0  0  0
   29.7320   32.0450   40.5230 C   0  0  0  0  0
   30.2180   32.2160   41.7970 O   0  0  0  0  0
   30.1890   30.9060   39.5380 C   0  0  0  0  0
   31.3570   30.2220   39.7860 O   0  0  0  0  0
   28.8430   30.1550   39.1380 C   0  0  0  0  0
   28.6180   29.4410   37.8430 N   0  0  0  0  0
   28.4810   28.0230   37.6600 C   0  0  0  0  0
   28.3950   27.4610   36.3500 N   0  0  0  0  0
   28.5410   28.2170   35.2950 C   0  0  0  0  0
   28.8200   29.6250   35.4060 C   0  0  0  0  0
   28.8360   30.1830   36.6530 C   0  0  0  0  0
   28.2610   27.3520   38.6620 O   0  0  0  0  0
   28.3620   27.6780   33.9620 N   0  0  0  0  0
   25.3465   33.5264   36.6188 H   0  0  0  0  0
   23.6877   33.4616   38.3309 H   0  0  0  0  0
   27.5537   34.2555   40.5823 H   0  0  0  0  0
   28.2609   34.0004   38.9659 H   0  0  0  0  0
   27.7409   32.1870   41.1961 H   0  0  0  0  0
   30.3214   32.9443   40.3441 H   0  0  0  0  0
   31.1693   32.0874   41.7953 H   0  0  0  0  0
   30.6550   31.3038   38.6365 H   0  0  0  0  0
   31.4939   29.5653   39.0992 H   0  0  0  0  0
   28.9172   29.2523   39.7443 H   0  0  0  0  0
   29.0132   30.2292   34.5196 H   0  0  0  0  0
   29.0259   31.2529   36.7383 H   0  0  0  0  0
   28.1185   26.6953   33.8377 H   0  0  0  0  0
  1  2  1  0  0  0
  2  3  1  0  0  0
  2  4  2  0  0  0
  2  5  1  0  0  0
  5  6  1  0  0  0
  6  7  1  0  0  0
  7  8  1  0  0  0
  7  9  1  0  0  0
  8 13  1  0  0  0
  9 10  1  0  0  0
  9 11  1  0  0  0
 11 12  1  0  0  0
 11 13  1  0  0  0
 13 14  1  0  0  0
 14 15  1  0  0  0
 14 19  1  0  0  0
 15 16  1  0  0  0
 15 20  2  0  0  0
 16 17  4  0  0  0
 17 18  1  0  0  0
 17 21  2  0  0  0
 18 19  2  0  0  0
  1 22  1  0  0  0
  3 23  1  0  0  0
  6 24  1  0  0  0
  6 25  1  0  0  0
  7 26  1  0  0  0
  9 27  1  0  0  0
 10 28  1  0  0  0
 11 29  1  0  0  0
 12 30  1  0  0  0
 13 31  1  0  0  0
 18 32  1  0  0  0
 19 33  1  0  0  0
 21 34  1  0  0  0
M  END
$$$$
