4g0z_ligand
  -I-interpret- 

 37 39  0  0  0  0  0  0  0  0999 V2000
   25.3970   34.6460   38.2740 P   0  0  0  0  0
   25.9450   35.9870   38.6840 O   0  0  0  0  0
   25.6930   34.3060   36.8300 O   0  0  0  0  0
   23.9740   34.3570   38.6910 O   0  0  0  0  0
   26.2720   33.5790   39.1110 O   0  0  0  0  0
   27.7030   33.5630   39.0420 C   0  0  0  0  0
   28.1960   32.4700   39.9940 C   0  0  0  0  0
   27.6480   31.2080   39.6170 O   0  0  0  0  0
   29.7110   32.3040   40.0060 C   0  0  0  0  0
   30.2400   32.7950   41.2440 O   0  0  0  0  0
   29.9570   30.8160   39.9510 C   0  0  0  0  0
   30.5730   30.4560   41.1850 O   0  0  0  0  0
   28.5890   30.1610   39.8460 C   0  0  0  0  0
   28.5250   29.1960   38.7200 N   0  0  0  0  0
   28.1670   27.9010   38.8190 C   0  0  0  0  0
   28.1960   27.3410   37.5870 N   0  0  0  0  0
   28.5690   28.3010   36.7090 C   0  0  0  0  0
   28.7640   28.3100   35.3350 C   0  0  0  0  0
   28.5840   27.2550   34.6870 O   0  0  0  0  0
   29.1410   29.4480   34.7310 N   0  0  0  0  0
   29.3250   30.5760   35.4360 C   0  0  0  0  0
   29.7040   31.7150   34.8030 N   0  0  0  0  0
   29.1440   30.5960   36.7780 N   0  0  0  0  0
   28.7640   29.4710   37.4300 C   0  0  0  0  0
   25.3228   33.4448   36.6228 H   0  0  0  0  0
   23.7226   33.4832   38.3829 H   0  0  0  0  0
   28.1099   34.5323   39.3302 H   0  0  0  0  0
   28.0338   33.3597   38.0235 H   0  0  0  0  0
   27.8710   32.7857   40.9854 H   0  0  0  0  0
   30.1763   32.8424   39.1803 H   0  0  0  0  0
   31.1941   32.6887   41.2476 H   0  0  0  0  0
   30.5889   30.5128   39.1162 H   0  0  0  0  0
   30.7473   29.5120   41.1909 H   0  0  0  0  0
   28.3772   29.6072   40.7606 H   0  0  0  0  0
   27.8976   27.3873   39.7418 H   0  0  0  0  0
   29.8486   31.7134   33.7933 H   0  0  0  0  0
   29.2941   31.4600   37.2989 H   0  0  0  0  0
  1  2  2  0  0  0
  1  3  1  0  0  0
  1  4  1  0  0  0
  1  5  1  0  0  0
  5  6  1  0  0  0
  6  7  1  0  0  0
  7  8  1  0  0  0
  7  9  1  0  0  0
  8 13  1  0  0  0
  9 10  1  0  0  0
  9 11  1  0  0  0
 11 12  1  0  0  0
 11 13  1  0  0  0
 13 14  1  0  0  0
 14 15  4  0  0  0
 14 24  4  0  0  0
 15 16  4  0  0  0
 16 17  4  0  0  0
 17 18  1  0  0  0
 17 24  4  0  0  0
 18 19  2  0  0  0
 18 20  1  0  0  0
 20 21  4  0  0  0
 21 22  2  0  0  0
 21 23  1  0  0  0
 23 24  1  0  0  0
  3 25  1  0  0  0
  4 26  1  0  0  0
  6 27  1  0  0  0
  6 28  1  0  0  0
  7 29  1  0  0  0
  9 30  1  0  0  0
 10 31  1  0  0  0
 11 32  1  0  0  0
 12 33  1  0  0  0
 13 34  1  0  0  0
 15 35  1  0  0  0
 22 36  1  0  0  0
 23 37  1  0  0  0
M  END
$$$$
