4g8l_ligand
  -I-interpret- 

106114  0  0  0  0  0  0  0  0999 V2000
    6.5710  -29.0660   28.4810 O   0  0  0  0  0
    7.2100  -28.0670   29.3960 P   0  0  0  0  0
    6.5340  -26.6490   29.2800 O   0  0  0  0  0
    7.1400  -28.5950   30.8610 O   0  0  0  0  0
    8.6680  -27.9640   28.9600 O   0  0  0  0  0
    9.0080  -27.5170   27.7100 C   0  0  0  0  0
   10.4750  -27.7680   27.3990 C   0  0  0  0  0
   11.5170  -27.0720   28.1940 O   0  0  0  0  0
   12.5570  -28.1150   28.5120 C   0  0  0  0  0
   12.3860  -29.0340   27.3220 C   0  0  0  0  0
   13.0440  -28.7690   26.1070 O   0  0  0  0  0
   10.9310  -29.2140   27.2930 C   0  0  0  0  0
   10.3790  -30.0300   26.3310 O   0  0  0  0  0
   12.5840  -27.9030   29.9390 N   0  3  0  0  0
   12.0700  -28.7700   30.9000 C   0  0  0  0  0
   12.1780  -28.1030   32.2520 N   0  0  0  0  0
   12.7520  -26.8120   32.0520 C   0  0  0  0  0
   13.0750  -25.7590   32.9630 C   0  0  0  0  0
   12.7990  -25.8680   34.3750 N   0  0  0  0  0
   13.0150  -26.6470   30.6330 C   0  0  0  0  0
   13.5950  -25.4370   30.1400 N   0  0  0  0  0
   13.9200  -24.3660   31.0770 C   0  0  0  0  0
   13.6690  -24.5320   32.4500 N   0  0  0  0  0
   14.4550  -29.4660   25.9390 P   0  0  0  0  0
   14.5540  -30.7040   26.9280 O   0  0  0  0  0
   14.6680  -29.7910   24.4780 O   0  0  0  0  0
   15.6160  -28.5090   26.4010 O   0  0  0  0  0
   15.5820  -27.1450   26.0490 C   0  0  0  0  0
   16.6450  -26.3500   26.7760 C   0  0  0  0  0
   16.3350  -25.7550   28.1300 O   0  0  0  0  0
   17.5420  -26.0680   28.9750 C   0  0  0  0  0
   16.8540  -26.9340   29.9330 N   0  3  0  0  0
   16.2680  -28.1810   29.6180 C   0  0  0  0  0
   15.7450  -28.7410   30.8530 N   0  0  0  0  0
   16.0390  -27.7760   31.9710 C   0  0  0  0  0
   16.6980  -26.6860   31.4300 C   0  0  0  0  0
   17.1270  -25.5640   32.2880 N   0  0  0  0  0
   16.8650  -25.6020   33.6260 C   0  0  0  0  0
   16.2070  -26.6840   34.1690 N   0  0  0  0  0
   15.7740  -27.8160   33.3030 C   0  0  0  0  0
   15.0900  -28.9500   33.8620 N   0  3  0  0  0
   18.6890  -26.2890   27.9700 C   0  0  0  0  0
   19.5760  -25.2430   27.6670 O   0  0  0  0  0
   18.0520  -26.9430   26.8070 C   0  0  0  0  0
   18.8180  -26.9870   25.6490 O   0  0  0  0  0
   20.7570  -25.0570   28.6660 P   0  0  0  0  0
   20.3220  -25.4580   30.0600 O   0  0  0  0  0
   21.9270  -26.0220   28.1850 O   0  0  0  0  0
   21.9470  -26.4610   26.8450 C   0  0  0  0  0
   23.3540  -26.8880   26.3620 C   0  0  0  0  0
   24.4490  -25.9980   26.6480 O   0  0  0  0  0
   25.3830  -26.6890   27.5910 C   0  0  0  0  0
   26.0580  -26.0110   28.7210 N   0  0  0  0  0
   27.2160  -25.2700   28.6660 C   0  0  0  0  0
   27.5070  -24.8250   29.9810 N   0  0  0  0  0
   26.5330  -25.3030   30.8170 C   0  0  0  0  0
   25.6210  -26.0430   30.0360 C   0  0  0  0  0
   24.5070  -26.6570   30.6160 N   0  0  0  0  0
   24.2900  -26.5210   32.0430 C   0  0  0  0  0
   25.1760  -25.7950   32.8180 N   0  0  0  0  0
   26.3130  -25.1780   32.2190 C   0  0  0  0  0
   27.2280  -24.4300   33.0390 N   0  0  0  0  0
   24.9990  -28.2010   27.6120 C   0  0  0  0  0
   26.0240  -29.1480   27.5870 O   0  0  0  0  0
   23.8490  -28.3210   26.6340 C   0  0  0  0  0
   23.9050  -29.2290   25.5720 O   0  0  0  0  0
    6.9693  -26.0383   29.8793 H   0  0  0  0  0
    7.5489  -27.9566   31.4499 H   0  0  0  0  0
    8.8287  -26.4426   27.6703 H   0  0  0  0  0
    8.4060  -28.0559   26.9784 H   0  0  0  0  0
   10.4202  -27.3024   26.4150 H   0  0  0  0  0
   13.6023  -28.4239   28.5233 H   0  0  0  0  0
   12.9505  -29.9569   27.4550 H   0  0  0  0  0
   10.5481  -29.8469   28.0936 H   0  0  0  0  0
   10.7685  -30.9052   26.3934 H   0  0  0  0  0
   11.6594  -29.7616   30.7094 H   0  0  0  0  0
   12.3627  -26.7122   34.7457 H   0  0  0  0  0
   13.0401  -25.1009   35.0025 H   0  0  0  0  0
   14.3576  -23.4369   30.7117 H   0  0  0  0  0
   14.4063  -30.4055   27.8284 H   0  0  0  0  0
   14.6064  -26.7444   26.3244 H   0  0  0  0  0
   15.7657  -27.0630   24.9777 H   0  0  0  0  0
   16.6228  -25.5150   26.0757 H   0  0  0  0  0
   18.1587  -25.4509   29.6284 H   0  0  0  0  0
   16.2176  -28.6387   28.6301 H   0  0  0  0  0
   17.1762  -24.7763   34.2658 H   0  0  0  0  0
   16.0152  -26.7100   35.1705 H   0  0  0  0  0
   15.0122  -27.8538   34.0816 H   0  0  0  0  0
   14.9749  -28.8149   34.8664 H   0  0  0  0  0
   14.1740  -29.0433   33.4231 H   0  0  0  0  0
   15.6375  -29.7936   33.6917 H   0  0  0  0  0
   19.4435  -26.9077   28.4559 H   0  0  0  0  0
   17.9694  -28.0260   26.8983 H   0  0  0  0  0
   19.6684  -27.3873   25.8442 H   0  0  0  0  0
   21.6228  -25.6285   26.2206 H   0  0  0  0  0
   21.2957  -27.3321   26.7739 H   0  0  0  0  0
   23.0886  -26.8323   25.3063 H   0  0  0  0  0
   26.4043  -26.5672   27.2301 H   0  0  0  0  0
   27.8043  -25.0622   27.7722 H   0  0  0  0  0
   23.4243  -26.9933   32.5073 H   0  0  0  0  0
   28.0426  -23.9836   32.6175 H   0  0  0  0  0
   27.0623  -24.3460   34.0419 H   0  0  0  0  0
   24.6746  -28.5111   28.6053 H   0  0  0  0  0
   25.6442  -30.0295   27.6039 H   0  0  0  0  0
   23.0657  -28.9113   27.1096 H   0  0  0  0  0
   24.2301  -30.0739   25.8916 H   0  0  0  0  0
  1  2  2  0  0  0
  2  3  1  0  0  0
  2  4  1  0  0  0
  2  5  1  0  0  0
  5  6  1  0  0  0
  6  7  1  0  0  0
  7  8  1  0  0  0
  7 12  1  0  0  0
  8  9  1  0  0  0
  9 10  1  0  0  0
  9 14  1  0  0  0
 10 11  1  0  0  0
 10 12  1  0  0  0
 11 24  1  0  0  0
 12 13  1  0  0  0
 14 15  4  0  0  0
 14 20  4  0  0  0
 15 16  4  0  0  0
 16 17  4  0  0  0
 17 18  4  0  0  0
 17 20  4  0  0  0
 18 19  1  0  0  0
 18 23  4  0  0  0
 20 21  4  0  0  0
 21 22  4  0  0  0
 22 23  4  0  0  0
 24 25  1  0  0  0
 24 26  2  0  0  0
 24 27  1  0  0  0
 27 28  1  0  0  0
 28 29  1  0  0  0
 29 30  1  0  0  0
 29 44  1  0  0  0
 30 31  1  0  0  0
 31 32  1  0  0  0
 31 42  1  0  0  0
 32 33  4  0  0  0
 32 36  4  0  0  0
 33 34  4  0  0  0
 34 35  4  0  0  0
 35 36  4  0  0  0
 35 40  1  0  0  0
 36 37  1  0  0  0
 37 38  2  0  0  0
 38 39  1  0  0  0
 39 40  1  0  0  0
 40 41  1  0  0  0
 42 43  1  0  0  0
 42 44  1  0  0  0
 43 46  1  0  0  0
 44 45  1  0  0  0
 46 47  2  0  0  0
 46 48  1  0  0  0
 48 49  1  0  0  0
 49 50  1  0  0  0
 50 51  1  0  0  0
 50 65  1  0  0  0
 51 52  1  0  0  0
 52 53  1  0  0  0
 52 63  1  0  0  0
 53 54  4  0  0  0
 53 57  4  0  0  0
 54 55  4  0  0  0
 55 56  4  0  0  0
 56 57  4  0  0  0
 56 61  4  0  0  0
 57 58  4  0  0  0
 58 59  4  0  0  0
 59 60  4  0  0  0
 60 61  4  0  0  0
 61 62  1  0  0  0
 63 64  1  0  0  0
 63 65  1  0  0  0
 65 66  1  0  0  0
  3 67  1  0  0  0
  4 68  1  0  0  0
  6 69  1  0  0  0
  6 70  1  0  0  0
  7 71  1  0  0  0
  9 72  1  0  0  0
 10 73  1  0  0  0
 12 74  1  0  0  0
 13 75  1  0  0  0
 15 76  1  0  0  0
 19 77  1  0  0  0
 19 78  1  0  0  0
 22 79  1  0  0  0
 25 80  1  0  0  0
 28 81  1  0  0  0
 28 82  1  0  0  0
 29 83  1  0  0  0
 31 84  1  0  0  0
 33 85  1  0  0  0
 38 86  1  0  0  0
 39 87  1  0  0  0
 40 88  1  0  0  0
 41 89  1  0  0  0
 41 90  1  0  0  0
 41 91  1  0  0  0
 42 92  1  0  0  0
 44 93  1  0  0  0
 45 94  1  0  0  0
 49 95  1  0  0  0
 49 96  1  0  0  0
 50 97  1  0  0  0
 52 98  1  0  0  0
 54 99  1  0  0  0
 59100  1  0  0  0
 62101  1  0  0  0
 62102  1  0  0  0
 63103  1  0  0  0
 64104  1  0  0  0
 65105  1  0  0  0
 66106  1  0  0  0
M  END
$$$$
