4jbs_ligand
  -I-interpret- 

 73 75  0  0  0  0  0  0  0  0999 V2000
   20.5360    5.5820    0.7930 O   0  0  0  0  0
   20.1780    3.2700    0.2710 O   0  0  0  0  0
   16.8340    3.4090    3.0480 C   0  0  0  0  0
   15.8140    2.2780    3.0250 C   0  0  0  0  0
   14.4530    2.4320    2.8050 C   0  0  0  0  0
   13.6460    1.2870    2.7930 C   0  0  0  0  0
   14.1200    0.0270    2.9840 C   0  0  0  0  0
   15.4950   -0.1410    3.2040 C   0  0  0  0  0
   17.6300    5.1390    0.5840 N   0  3  0  0  0
   16.3150    0.9970    3.2190 C   0  0  0  0  0
   17.6830    3.3060    1.7870 C   0  0  0  0  0
   19.5300    1.0650    2.3080 O   0  0  0  0  0
   18.2340    4.5180    1.5380 C   0  0  0  0  0
   20.5060    1.3720    2.9700 C   0  0  0  0  0
   20.6630    3.9370    2.6540 C   0  0  0  0  0
   21.3810    2.5530    2.5660 C   0  0  0  0  0
   20.6530    0.7810    4.2640 N   0  0  0  0  0
   22.6460    2.6050    3.4800 C   0  0  0  0  0
   23.9490    2.1440    2.8080 C   0  0  0  0  0
   24.9390    3.3000    2.6390 C   0  0  0  0  0
   23.5850    1.5330    1.4510 C   0  0  0  0  0
   21.0760   -0.3830    5.0410 C   0  0  0  0  0
   18.8140   -2.0220    1.4600 N   0  0  0  0  0
   19.9710    4.3240    1.2620 P   0  0  0  0  0
   22.4550   -0.8760    4.6060 C   0  0  0  0  0
   20.0550   -1.5140    4.9130 C   0  0  0  0  0
   19.7780   -1.8930    3.4870 C   0  0  0  0  0
   18.7280   -1.4770    2.7220 C   0  0  0  0  0
   20.5720   -2.7490    2.6480 C   0  0  0  0  0
   19.9360   -2.8080    1.3900 C   0  0  0  0  0
   21.7540   -3.4770    2.8410 C   0  0  0  0  0
   20.4450   -3.5650    0.3260 C   0  0  0  0  0
   22.2550   -4.2280    1.7780 C   0  0  0  0  0
   21.6000   -4.2630    0.5420 C   0  0  0  0  0
   22.8200   -0.7700    3.4380 O   0  0  0  0  0
   23.2750   -1.6050    5.5220 N   0  0  0  0  0
   19.8004    2.4490    0.5951 H   0  0  0  0  0
   17.4647    3.3283    3.9333 H   0  0  0  0  0
   16.3258    4.3727    3.0812 H   0  0  0  0  0
   14.0218    3.4203    2.6453 H   0  0  0  0  0
   12.5771    1.4134    2.6207 H   0  0  0  0  0
   13.4482   -0.8312    2.9666 H   0  0  0  0  0
   15.9170   -1.1338    3.3599 H   0  0  0  0  0
   16.6373    5.2164    0.8052 H   0  0  0  0  0
   18.0301    6.0715    0.4800 H   0  0  0  0  0
   17.7462    4.6189   -0.2857 H   0  0  0  0  0
   17.3843    0.8715    3.3891 H   0  0  0  0  0
   17.0620    3.0001    0.9450 H   0  0  0  0  0
   18.4679    2.5628    1.9273 H   0  0  0  0  0
   18.1040    5.1581    2.4107 H   0  0  0  0  0
   21.4051    4.6979    2.8957 H   0  0  0  0  0
   19.8906    3.8788    3.4209 H   0  0  0  0  0
   21.6390    2.3860    1.5202 H   0  0  0  0  0
   20.3171    1.4706    4.9364 H   0  0  0  0  0
   22.4624    1.9252    4.3120 H   0  0  0  0  0
   22.7885    3.6480    3.7626 H   0  0  0  0  0
   24.4437    1.4046    3.4378 H   0  0  0  0  0
   24.4882    4.0750    2.0192 H   0  0  0  0  0
   25.1843    3.7126    3.6176 H   0  0  0  0  0
   25.8466    2.9323    2.1603 H   0  0  0  0  0
   22.9167    0.6854    1.6031 H   0  0  0  0  0
   23.0875    2.2841    0.8375 H   0  0  0  0  0
   24.4928    1.1963    0.9503 H   0  0  0  0  0
   21.1391   -0.0743    6.0845 H   0  0  0  0  0
   19.1195   -1.1691    5.3534 H   0  0  0  0  0
   20.4638   -2.3899    5.4167 H   0  0  0  0  0
   17.9354   -0.8097    3.0605 H   0  0  0  0  0
   22.2703   -3.4567    3.8008 H   0  0  0  0  0
   19.9382   -3.5959   -0.6385 H   0  0  0  0  0
   23.1740   -4.7984    1.9125 H   0  0  0  0  0
   22.0205   -4.8605   -0.2669 H   0  0  0  0  0
   24.1469   -2.0266    5.2018 H   0  0  0  0  0
   22.9883   -1.7037    6.4959 H   0  0  0  0  0
 24  1  2  0  0  0
 24  2  1  0  0  0
  3  4  1  0  0  0
 11  3  1  0  0  0
  4  5  4  0  0  0
  4 10  4  0  0  0
  5  6  4  0  0  0
  6  7  4  0  0  0
  8  7  4  0  0  0
 10  8  4  0  0  0
 13  9  1  0  0  0
 13 11  1  0  0  0
 14 12  2  0  0  0
 24 13  1  0  0  0
 14 16  1  0  0  0
 17 14  1  0  0  0
 16 15  1  0  0  0
 15 24  1  0  0  0
 16 18  1  0  0  0
 22 17  1  0  0  0
 18 19  1  0  0  0
 19 20  1  0  0  0
 19 21  1  0  0  0
 22 25  1  0  0  0
 26 22  1  0  0  0
 28 23  4  0  0  0
 23 30  4  0  0  0
 25 35  2  0  0  0
 25 36  1  0  0  0
 27 26  1  0  0  0
 27 28  4  0  0  0
 27 29  4  0  0  0
 29 30  4  0  0  0
 29 31  4  0  0  0
 30 32  4  0  0  0
 31 33  4  0  0  0
 32 34  4  0  0  0
 33 34  4  0  0  0
  2 37  1  0  0  0
  3 38  1  0  0  0
  3 39  1  0  0  0
  5 40  1  0  0  0
  6 41  1  0  0  0
  7 42  1  0  0  0
  8 43  1  0  0  0
  9 44  1  0  0  0
  9 45  1  0  0  0
  9 46  1  0  0  0
 10 47  1  0  0  0
 11 48  1  0  0  0
 11 49  1  0  0  0
 13 50  1  0  0  0
 15 51  1  0  0  0
 15 52  1  0  0  0
 16 53  1  0  0  0
 17 54  1  0  0  0
 18 55  1  0  0  0
 18 56  1  0  0  0
 19 57  1  0  0  0
 20 58  1  0  0  0
 20 59  1  0  0  0
 20 60  1  0  0  0
 21 61  1  0  0  0
 21 62  1  0  0  0
 21 63  1  0  0  0
 22 64  1  0  0  0
 26 65  1  0  0  0
 26 66  1  0  0  0
 28 67  1  0  0  0
 31 68  1  0  0  0
 32 69  1  0  0  0
 33 70  1  0  0  0
 34 71  1  0  0  0
 36 72  1  0  0  0
 36 73  1  0  0  0
M  END
$$$$
