4jg1_ligand
  -I-interpret- 

149150  0  0  0  0  0  0  0  0999 V2000
   -6.5280   36.2070    2.8090 N   0  3  0  0  0
   -5.2510   35.8170    2.2210 C   0  0  0  0  0
   -4.0820   36.5660    2.8660 C   0  0  0  0  0
   -4.1370   37.7820    3.0600 O   0  0  0  0  0
   -5.2290   36.0780    0.7070 C   0  0  0  0  0
   -3.9260   35.6020    0.0470 C   0  0  0  0  0
   -3.3450   36.5900   -0.9760 C   0  0  0  0  0
   -4.2310   36.6950   -2.2270 C   0  0  0  0  0
   -3.4980   37.1360   -3.4790 N   0  3  0  0  0
   -3.0130   35.8370    3.1700 N   0  0  0  0  0
   -1.8370   36.4390    3.7680 C   0  0  0  0  0
   -1.1120   37.4070    2.8470 C   0  0  0  0  0
   -1.3370   37.4210    1.6340 O   0  0  0  0  0
   -0.2230   38.2020    3.4440 N   0  0  0  0  0
    0.4690   39.2930    2.7610 C   0  0  0  0  0
    1.9320   39.0080    2.4620 C   0  0  0  0  0
    2.7560   39.9460    2.3680 O   0  0  0  0  0
    0.3860   40.5620    3.6260 C   0  0  0  0  0
    1.1180   40.4050    4.9570 C   0  0  0  0  0
    1.6320   39.3440    5.2600 O   0  0  0  0  0
    1.1750   41.4790    5.7450 N   0  0  0  0  0
    2.2920   37.7360    2.2910 N   0  0  0  0  0
    3.6740   37.4170    2.0240 C   0  0  0  0  0
    3.8590   36.1910    1.1490 C   0  0  0  0  0
    2.9600   35.3370    1.0260 O   0  0  0  0  0
    4.4340   37.2190    3.3360 C   0  0  0  0  0
    4.0920   35.9780    4.1430 C   0  0  0  0  0
    4.7100   34.7590    3.8800 C   0  0  0  0  0
    3.1930   36.0360    5.2070 C   0  0  0  0  0
    4.4340   33.6060    4.6580 C   0  0  0  0  0
    2.9110   34.8980    5.9790 C   0  0  0  0  0
    3.5380   33.6930    5.6960 C   0  0  0  0  0
    3.2980   32.5800    6.4670 O   0  0  0  0  0
    5.0370   36.1340    0.5450 N   0  0  0  0  0
    5.4370   35.0510   -0.3500 C   0  0  0  0  0
    6.6180   34.2920    0.2510 C   0  0  0  0  0
    7.5460   34.9240    0.7890 O   0  0  0  0  0
    5.8420   35.6040   -1.7270 C   0  0  0  0  0
    6.4650   34.5320   -2.6150 C   0  0  0  0  0
    4.6320   36.2150   -2.4000 C   0  0  0  0  0
    6.5810   32.9660    0.1360 N   0  0  0  0  0
    7.6890   32.0940    0.5180 C   0  0  0  0  0
    8.4000   31.5720   -0.7300 C   0  0  0  0  0
    9.5940   31.7820   -0.8920 O   0  0  0  0  0
    7.1870   30.9300    1.4070 C   0  0  0  0  0
    8.3320   29.9880    1.7340 C   0  0  0  0  0
    6.5530   31.4900    2.6880 C   0  0  0  0  0
    7.6620   30.9370   -1.6440 N   0  0  0  0  0
    8.2760   30.3870   -2.8630 C   0  0  0  0  0
    8.0760   31.3570   -4.0430 C   0  0  0  0  0
    6.9260   31.6470   -4.3970 O   0  0  0  0  0
    7.6990   28.9990   -3.2030 C   0  0  0  0  0
    7.9690   28.0870   -2.1290 O   0  0  0  0  0
    8.3210   28.4290   -4.4680 C   0  0  0  0  0
    9.1810   31.8700   -4.6010 N   0  0  0  0  0
    9.1770   32.6460   -5.7050 C   0  0  0  0  0
   10.1440   33.7800   -5.4660 C   0  0  0  0  0
    9.7670   34.5940   -4.2690 C   0  0  0  0  0
   11.4020   33.1950   -5.2800 O   0  0  0  0  0
   12.7950   33.9100   -5.4780 P   0  0  0  0  0
   13.3810   34.1070   -4.1210 O   0  0  0  0  0
   13.6890   32.9570   -6.2420 O   0  0  0  0  0
   12.6670   35.1820   -6.2390 O   0  0  0  0  0
    9.3900   31.9910   -6.9080 C   0  0  0  0  0
    9.6460   30.8020   -6.9520 O   0  0  0  0  0
    9.3470   32.7260   -8.0140 N   0  0  0  0  0
    9.5930   32.1040   -9.3150 C   0  0  0  0  0
   10.0940   33.0900  -10.3630 C   0  0  0  0  0
   10.0540   34.3090  -10.1690 O   0  0  0  0  0
    8.3160   31.4290   -9.8200 C   0  0  0  0  0
    7.1360   32.3480   -9.8900 C   0  0  0  0  0
    7.0430   33.3720  -10.8100 N   0  0  0  0  0
    5.9990   32.3980   -9.1550 C   0  0  0  0  0
    5.8990   34.0120  -10.6400 C   0  0  0  0  0
    5.2480   33.4420   -9.6410 N   0  0  0  0  0
   10.5400   32.6730  -11.4350 O   0  0  0  0  0
   -6.5100   36.0215    3.8118 H   0  0  0  0  0
   -6.6849   37.2020    2.6488 H   0  0  0  0  0
   -7.2787   35.6692    2.3760 H   0  0  0  0  0
   -5.1388   34.7488    2.4066 H   0  0  0  0  0
   -5.3123   37.1534    0.5498 H   0  0  0  0  0
   -6.0546   35.5255    0.2584 H   0  0  0  0  0
   -4.1531   34.6798   -0.4878 H   0  0  0  0  0
   -3.1866   35.4855    0.8393 H   0  0  0  0  0
   -2.3611   36.2325   -1.2798 H   0  0  0  0  0
   -3.2881   37.5740   -0.5106 H   0  0  0  0  0
   -4.9902   37.4489   -2.0187 H   0  0  0  0  0
   -4.6272   35.6986   -2.4227 H   0  0  0  0  0
   -4.1546   37.1797   -4.2583 H   0  0  0  0  0
   -3.0891   38.0577   -3.3253 H   0  0  0  0  0
   -2.7590   36.4662   -3.6926 H   0  0  0  0  0
   -3.0199   34.8351    2.9790 H   0  0  0  0  0
   -1.1429   35.6329    4.0058 H   0  0  0  0  0
   -2.1670   37.0035    4.6401 H   0  0  0  0  0
   -0.0151   38.0400    4.4294 H   0  0  0  0  0
   -0.0320   39.4185    1.8012 H   0  0  0  0  0
   -0.6649   40.7579    3.8391 H   0  0  0  0  0
    0.8556   41.3775    3.0760 H   0  0  0  0  0
    1.6630   41.4300    6.6394 H   0  0  0  0  0
    0.7306   42.3496    5.4535 H   0  0  0  0  0
    1.5954   36.9931    2.3485 H   0  0  0  0  0
    4.0754   38.2662    1.4710 H   0  0  0  0  0
    4.1709   38.0685    3.9662 H   0  0  0  0  0
    5.4842   37.1187    3.0621 H   0  0  0  0  0
    5.4220   34.6890    3.0577 H   0  0  0  0  0
    2.7014   36.9798    5.4431 H   0  0  0  0  0
    4.9277   32.6602    4.4348 H   0  0  0  0  0
    2.1987   34.9610    6.8017 H   0  0  0  0  0
    2.6546   32.7953    7.1461 H   0  0  0  0  0
    5.7019   36.8887    0.7145 H   0  0  0  0  0
    4.5879   34.3788   -0.4736 H   0  0  0  0  0
    6.6026   36.3696   -1.5739 H   0  0  0  0  0
    7.3579   34.1355   -2.1317 H   0  0  0  0  0
    5.7462   33.7273   -2.7696 H   0  0  0  0  0
    6.7346   34.9698   -3.5761 H   0  0  0  0  0
    3.8637   35.4521   -2.5254 H   0  0  0  0  0
    4.2443   37.0248   -1.7819 H   0  0  0  0  0
    4.9196   36.6067   -3.3757 H   0  0  0  0  0
    5.7349   32.5367   -0.2384 H   0  0  0  0  0
    8.4058   32.6703    1.1030 H   0  0  0  0  0
    6.4289   30.3646    0.8650 H   0  0  0  0  0
    8.7410   29.5807    0.8094 H   0  0  0  0  0
    9.1098   30.5349    2.2670 H   0  0  0  0  0
    7.9643   29.1746    2.3595 H   0  0  0  0  0
    7.2961   32.0687    3.2366 H   0  0  0  0  0
    5.7123   32.1320    2.4251 H   0  0  0  0  0
    6.2021   30.6655    3.3086 H   0  0  0  0  0
    6.6584   30.8317   -1.4951 H   0  0  0  0  0
    9.3439   30.2679   -2.6797 H   0  0  0  0  0
    6.6264   29.1204   -3.3546 H   0  0  0  0  0
    7.6080   27.2241   -2.3450 H   0  0  0  0  0
    8.1210   29.0996   -5.3037 H   0  0  0  0  0
    9.3976   28.3302   -4.3293 H   0  0  0  0  0
    7.8887   27.4500   -4.6746 H   0  0  0  0  0
   10.0792   31.6614   -4.1650 H   0  0  0  0  0
    8.1635   33.0226   -5.8431 H   0  0  0  0  0
   10.1374   34.4644   -6.3143 H   0  0  0  0  0
    8.7739   35.0179   -4.4176 H   0  0  0  0  0
    9.7629   33.9569   -3.3846 H   0  0  0  0  0
   10.4905   35.3983   -4.1356 H   0  0  0  0  0
   13.4417   33.2597   -3.6738 H   0  0  0  0  0
   13.7723   32.1358   -5.7519 H   0  0  0  0  0
    9.1425   33.7236   -7.9560 H   0  0  0  0  0
   10.3809   31.3660   -9.1647 H   0  0  0  0  0
    9.6862   34.4816   -9.2992 H   0  0  0  0  0
    8.0682   30.6337   -9.1171 H   0  0  0  0  0
    8.5132   31.0745  -10.8317 H   0  0  0  0  0
    5.7301   31.7350   -8.3327 H   0  0  0  0  0
    5.5518   34.8643  -11.2240 H   0  0  0  0  0
  1  2  1  0  0  0
  2  3  1  0  0  0
  2  5  1  0  0  0
  3  4  2  0  0  0
  3 10  1  0  0  0
  5  6  1  0  0  0
  6  7  1  0  0  0
  7  8  1  0  0  0
  8  9  1  0  0  0
 10 11  1  0  0  0
 11 12  1  0  0  0
 12 13  2  0  0  0
 12 14  1  0  0  0
 14 15  1  0  0  0
 15 16  1  0  0  0
 15 18  1  0  0  0
 16 17  2  0  0  0
 16 22  1  0  0  0
 18 19  1  0  0  0
 19 20  2  0  0  0
 19 21  1  0  0  0
 22 23  1  0  0  0
 23 24  1  0  0  0
 23 26  1  0  0  0
 24 25  2  0  0  0
 24 34  1  0  0  0
 26 27  1  0  0  0
 27 28  4  0  0  0
 27 29  4  0  0  0
 28 30  4  0  0  0
 29 31  4  0  0  0
 30 32  4  0  0  0
 31 32  4  0  0  0
 32 33  1  0  0  0
 34 35  1  0  0  0
 35 36  1  0  0  0
 35 38  1  0  0  0
 36 37  2  0  0  0
 36 41  1  0  0  0
 38 39  1  0  0  0
 38 40  1  0  0  0
 41 42  1  0  0  0
 42 43  1  0  0  0
 42 45  1  0  0  0
 43 44  2  0  0  0
 43 48  1  0  0  0
 45 46  1  0  0  0
 45 47  1  0  0  0
 48 49  1  0  0  0
 49 50  1  0  0  0
 49 52  1  0  0  0
 50 51  2  0  0  0
 50 55  1  0  0  0
 52 53  1  0  0  0
 52 54  1  0  0  0
 55 56  1  0  0  0
 56 57  1  0  0  0
 56 64  1  0  0  0
 57 58  1  0  0  0
 57 59  1  0  0  0
 59 60  1  0  0  0
 60 61  1  0  0  0
 60 62  1  0  0  0
 60 63  2  0  0  0
 64 65  2  0  0  0
 64 66  1  0  0  0
 66 67  1  0  0  0
 67 68  1  0  0  0
 67 70  1  0  0  0
 68 69  1  0  0  0
 68 76  2  0  0  0
 70 71  1  0  0  0
 71 72  4  0  0  0
 71 73  4  0  0  0
 72 74  4  0  0  0
 73 75  4  0  0  0
 74 75  4  0  0  0
  1 77  1  0  0  0
  1 78  1  0  0  0
  1 79  1  0  0  0
  2 80  1  0  0  0
  5 81  1  0  0  0
  5 82  1  0  0  0
  6 83  1  0  0  0
  6 84  1  0  0  0
  7 85  1  0  0  0
  7 86  1  0  0  0
  8 87  1  0  0  0
  8 88  1  0  0  0
  9 89  1  0  0  0
  9 90  1  0  0  0
  9 91  1  0  0  0
 10 92  1  0  0  0
 11 93  1  0  0  0
 11 94  1  0  0  0
 14 95  1  0  0  0
 15 96  1  0  0  0
 18 97  1  0  0  0
 18 98  1  0  0  0
 21 99  1  0  0  0
 21100  1  0  0  0
 22101  1  0  0  0
 23102  1  0  0  0
 26103  1  0  0  0
 26104  1  0  0  0
 28105  1  0  0  0
 29106  1  0  0  0
 30107  1  0  0  0
 31108  1  0  0  0
 33109  1  0  0  0
 34110  1  0  0  0
 35111  1  0  0  0
 38112  1  0  0  0
 39113  1  0  0  0
 39114  1  0  0  0
 39115  1  0  0  0
 40116  1  0  0  0
 40117  1  0  0  0
 40118  1  0  0  0
 41119  1  0  0  0
 42120  1  0  0  0
 45121  1  0  0  0
 46122  1  0  0  0
 46123  1  0  0  0
 46124  1  0  0  0
 47125  1  0  0  0
 47126  1  0  0  0
 47127  1  0  0  0
 48128  1  0  0  0
 49129  1  0  0  0
 52130  1  0  0  0
 53131  1  0  0  0
 54132  1  0  0  0
 54133  1  0  0  0
 54134  1  0  0  0
 55135  1  0  0  0
 56136  1  0  0  0
 57137  1  0  0  0
 58138  1  0  0  0
 58139  1  0  0  0
 58140  1  0  0  0
 61141  1  0  0  0
 62142  1  0  0  0
 66143  1  0  0  0
 67144  1  0  0  0
 69145  1  0  0  0
 70146  1  0  0  0
 70147  1  0  0  0
 73148  1  0  0  0
 74149  1  0  0  0
M  END
$$$$
