4jiz_ligand
  -I-interpret- 

143145  0  0  0  0  0  0  0  0999 V2000
   -4.3830   25.9260   -8.7220 N   0  3  0  0  0
   -4.8360   25.0940   -7.5670 C   0  0  0  0  0
   -4.1640   23.7290   -7.6070 C   0  0  0  0  0
   -3.8710   23.1950   -8.6780 O   0  0  0  0  0
   -6.3610   24.9210   -7.5740 C   0  0  0  0  0
   -7.1270   26.2080   -7.3560 C   0  0  0  0  0
   -7.1100   26.8500   -6.1240 C   0  0  0  0  0
   -7.8720   26.7770   -8.3810 C   0  0  0  0  0
   -7.8060   28.0270   -5.9210 C   0  0  0  0  0
   -8.5740   27.9520   -8.1870 C   0  0  0  0  0
   -8.5360   28.5730   -6.9560 C   0  0  0  0  0
   -9.2340   29.7420   -6.7610 O   0  0  0  0  0
   -3.9230   23.1740   -6.4250 N   0  0  0  0  0
   -3.3100   21.8620   -6.3050 C   0  0  0  0  0
   -4.2180   20.9190   -5.5290 C   0  0  0  0  0
   -4.6070   21.1990   -4.3960 O   0  0  0  0  0
   -1.9610   21.9730   -5.6020 C   0  0  0  0  0
   -1.0210   22.9410   -6.2490 C   0  0  0  0  0
   -0.2280   22.6010   -7.3210 N   0  0  0  0  0
   -0.7460   24.2380   -5.9700 C   0  0  0  0  0
    0.4960   23.6480   -7.6790 C   0  0  0  0  0
    0.2000   24.6530   -6.8750 N   0  0  0  0  0
   -4.5460   19.7960   -6.1540 N   0  0  0  0  0
   -5.4330   18.8030   -5.5620 C   0  0  0  0  0
   -5.9810   17.8860   -6.6570 C   0  0  0  0  0
   -4.9610   17.5320   -7.5750 O   0  0  0  0  0
   -4.7180   17.9700   -4.5010 C   0  0  0  0  0
   -5.3500   17.2100   -3.7630 O   0  0  0  0  0
   -5.5630   16.9000   -8.9230 P   0  0  0  0  0
   -6.8170   15.9550   -8.5850 O   0  0  0  0  0
   -6.0560   18.0590   -9.9170 O   0  0  0  0  0
   -4.4270   16.0400   -9.6640 O   0  0  0  0  0
   -3.4210   17.7400   -4.6870 N   0  0  0  0  0
   -2.6480   16.9430   -3.7370 C   0  0  0  0  0
   -1.8180   17.8230   -2.8070 C   0  0  0  0  0
   -1.0010   18.6250   -3.2590 O   0  0  0  0  0
   -1.6950   15.9680   -4.4500 C   0  0  0  0  0
   -1.1490   14.9580   -3.4580 C   0  0  0  0  0
   -2.4030   15.2610   -5.5930 C   0  0  0  0  0
   -2.0350   17.6600   -1.5050 N   0  0  0  0  0
   -1.2610   18.3640   -0.4930 C   0  0  0  0  0
   -0.3600   17.3700    0.2370 C   0  0  0  0  0
   -0.8400   16.4180    0.8520 O   0  0  0  0  0
   -2.1740   19.0550    0.5360 C   0  0  0  0  0
   -1.3450   19.8790    1.5140 C   0  0  0  0  0
   -3.2010   19.9320   -0.1630 C   0  0  0  0  0
    0.9470   17.5910    0.1610 N   0  0  0  0  0
    1.9080   16.6770    0.7680 C   0  0  0  0  0
    2.4140   17.1980    2.1100 C   0  0  0  0  0
    2.6290   18.3980    2.2780 O   0  0  0  0  0
    3.0710   16.4320   -0.1950 C   0  0  0  0  0
    2.6300   15.7780   -1.4980 C   0  0  0  0  0
    3.7570   15.6440   -2.5070 C   0  0  0  0  0
    3.2380   15.2980   -3.8290 N   0  0  0  0  0
    2.5750   16.1400   -4.6180 C   0  0  0  0  0
    2.3400   17.3860   -4.2260 N   0  0  0  0  0
    2.1390   15.7360   -5.8020 N   0  0  0  0  0
    2.5940   16.2850    3.0620 N   0  0  0  0  0
    3.0520   16.6370    4.4050 C   0  0  0  0  0
    4.1930   15.7240    4.8530 C   0  0  0  0  0
    4.4040   14.6520    4.2870 O   0  0  0  0  0
    1.9030   16.5400    5.4160 C   0  0  0  0  0
    0.8660   17.6370    5.3060 C   0  0  0  0  0
    1.1610   18.9420    5.6800 C   0  0  0  0  0
   -0.4170   17.3610    4.8520 C   0  0  0  0  0
    0.2150   19.9440    5.5870 C   0  0  0  0  0
   -1.3720   18.3580    4.7560 C   0  0  0  0  0
   -1.0500   19.6470    5.1260 C   0  0  0  0  0
   -1.9950   20.6420    5.0350 O   0  0  0  0  0
    4.9160   16.1590    5.8820 N   0  0  0  0  0
    6.0110   15.3870    6.4610 C   0  0  0  0  0
    5.8370   15.2950    7.9740 C   0  0  0  0  0
    4.9124   14.6008    8.4747 O   0  0  0  0  0
    7.3450   16.0280    6.1250 C   0  0  0  0  0
    6.6266   15.9201    8.7312 O   0  0  0  0  0
   -3.3682   26.0238   -8.6917 H   0  0  0  0  0
   -4.6562   25.4726   -9.5939 H   0  0  0  0  0
   -4.8164   26.8476   -8.6663 H   0  0  0  0  0
   -4.5522   25.6102   -6.6499 H   0  0  0  0  0
   -6.6143   24.2506   -6.7527 H   0  0  0  0  0
   -6.6390   24.5416   -8.5573 H   0  0  0  0  0
   -6.5378   26.4180   -5.3030 H   0  0  0  0  0
   -7.9036   26.2887   -9.3550 H   0  0  0  0  0
   -7.7781   28.5203   -4.9494 H   0  0  0  0  0
   -9.1540   28.3851   -9.0019 H   0  0  0  0  0
   -9.6844   29.9838   -7.5736 H   0  0  0  0  0
   -4.1752   23.6828   -5.5777 H   0  0  0  0  0
   -3.1588   21.4604   -7.3070 H   0  0  0  0  0
   -1.4924   20.9896   -5.6405 H   0  0  0  0  0
   -2.1502   22.3306   -4.5899 H   0  0  0  0  0
   -1.1915   24.8387   -5.1770 H   0  0  0  0  0
    1.2146   23.6767   -8.4981 H   0  0  0  0  0
   -4.1633   19.6211   -7.0832 H   0  0  0  0  0
   -6.2525   19.3315   -5.0751 H   0  0  0  0  0
   -6.7696   18.4129   -7.1942 H   0  0  0  0  0
   -6.3673   16.9780   -6.1939 H   0  0  0  0  0
   -6.5377   15.2552   -7.9901 H   0  0  0  0  0
   -4.1230   15.3421   -9.0791 H   0  0  0  0  0
   -2.9571   18.1275   -5.5086 H   0  0  0  0  0
   -3.3789   16.3802   -3.1563 H   0  0  0  0  0
   -0.8645   16.5372   -4.8675 H   0  0  0  0  0
   -0.6055   15.4808   -2.6710 H   0  0  0  0  0
   -1.9750   14.3976   -3.0202 H   0  0  0  0  0
   -0.4756   14.2726   -3.9727 H   0  0  0  0  0
   -3.2520   14.7005   -5.2016 H   0  0  0  0  0
   -2.7546   15.9997   -6.3133 H   0  0  0  0  0
   -1.7087   14.5773   -6.0814 H   0  0  0  0  0
   -2.7696   17.0191   -1.2050 H   0  0  0  0  0
   -0.6658   19.1268   -0.9950 H   0  0  0  0  0
   -2.7054   18.2854    1.0959 H   0  0  0  0  0
   -0.6489   19.2250    2.0392 H   0  0  0  0  0
   -0.7883   20.6391    0.9659 H   0  0  0  0  0
   -2.0070   20.3602    2.2339 H   0  0  0  0  0
   -2.6874   20.6946   -0.7485 H   0  0  0  0  0
   -3.8134   19.3170   -0.8225 H   0  0  0  0  0
   -3.8357   20.4108    0.5826 H   0  0  0  0  0
    1.2860   18.4170   -0.3321 H   0  0  0  0  0
    1.4014   15.7317    0.9625 H   0  0  0  0  0
    3.7744   15.7589    0.2952 H   0  0  0  0  0
    3.5119   17.3985   -0.4389 H   0  0  0  0  0
    1.8605   16.4094   -1.9422 H   0  0  0  0  0
    2.2750   14.7748   -1.2621 H   0  0  0  0  0
    4.4295   14.8522   -2.1771 H   0  0  0  0  0
    4.2804   16.5977   -2.5754 H   0  0  0  0  0
    3.3942   14.3491   -4.1690 H   0  0  0  0  0
    1.8274   18.0241   -4.8347 H   0  0  0  0  0
    2.6720   17.7056   -3.3160 H   0  0  0  0  0
    2.3114   14.7789   -6.1096 H   0  0  0  0  0
    2.4058   15.3058    2.8469 H   0  0  0  0  0
    3.4124   17.6650    4.3665 H   0  0  0  0  0
    2.3468   16.6226    6.4081 H   0  0  0  0  0
    1.3893   15.5985    5.2217 H   0  0  0  0  0
    2.1571   19.1794    6.0536 H   0  0  0  0  0
   -0.6764   16.3416    4.5663 H   0  0  0  0  0
    0.4671   20.9641    5.8765 H   0  0  0  0  0
   -2.3723   18.1260    4.3903 H   0  0  0  0  0
   -2.8152   20.2730    4.6994 H   0  0  0  0  0
    4.6956   17.0706    6.2831 H   0  0  0  0  0
    5.9944   14.3819    6.0396 H   0  0  0  0  0
    7.4676   16.0627    5.0425 H   0  0  0  0  0
    7.3718   17.0406    6.5276 H   0  0  0  0  0
    8.1504   15.4395    6.5645 H   0  0  0  0  0
    7.2681   16.3967    8.1994 H   0  0  0  0  0
  1  2  1  0  0  0
  2  3  1  0  0  0
  2  5  1  0  0  0
  3  4  2  0  0  0
  3 13  1  0  0  0
  5  6  1  0  0  0
  6  7  4  0  0  0
  6  8  4  0  0  0
  7  9  4  0  0  0
  8 10  4  0  0  0
  9 11  4  0  0  0
 10 11  4  0  0  0
 11 12  1  0  0  0
 13 14  1  0  0  0
 14 15  1  0  0  0
 14 17  1  0  0  0
 15 16  2  0  0  0
 15 23  1  0  0  0
 17 18  1  0  0  0
 18 19  4  0  0  0
 18 20  4  0  0  0
 19 21  4  0  0  0
 20 22  4  0  0  0
 21 22  4  0  0  0
 23 24  1  0  0  0
 24 25  1  0  0  0
 24 27  1  0  0  0
 25 26  1  0  0  0
 26 29  1  0  0  0
 27 28  2  0  0  0
 27 33  1  0  0  0
 29 30  1  0  0  0
 29 31  2  0  0  0
 29 32  1  0  0  0
 33 34  1  0  0  0
 34 35  1  0  0  0
 34 37  1  0  0  0
 35 36  2  0  0  0
 35 40  1  0  0  0
 37 38  1  0  0  0
 37 39  1  0  0  0
 40 41  1  0  0  0
 41 42  1  0  0  0
 41 44  1  0  0  0
 42 43  2  0  0  0
 42 47  1  0  0  0
 44 45  1  0  0  0
 44 46  1  0  0  0
 47 48  1  0  0  0
 48 49  1  0  0  0
 48 51  1  0  0  0
 49 50  2  0  0  0
 49 58  1  0  0  0
 51 52  1  0  0  0
 52 53  1  0  0  0
 53 54  1  0  0  0
 54 55  1  0  0  0
 55 56  1  0  0  0
 55 57  2  0  0  0
 58 59  1  0  0  0
 59 60  1  0  0  0
 59 62  1  0  0  0
 60 61  2  0  0  0
 60 70  1  0  0  0
 62 63  1  0  0  0
 63 64  4  0  0  0
 63 65  4  0  0  0
 64 66  4  0  0  0
 65 67  4  0  0  0
 66 68  4  0  0  0
 67 68  4  0  0  0
 68 69  1  0  0  0
 70 71  1  0  0  0
 71 72  1  0  0  0
 71 74  1  0  0  0
 72 73  2  0  0  0
 72 75  1  0  0  0
  1 76  1  0  0  0
  1 77  1  0  0  0
  1 78  1  0  0  0
  2 79  1  0  0  0
  5 80  1  0  0  0
  5 81  1  0  0  0
  7 82  1  0  0  0
  8 83  1  0  0  0
  9 84  1  0  0  0
 10 85  1  0  0  0
 12 86  1  0  0  0
 13 87  1  0  0  0
 14 88  1  0  0  0
 17 89  1  0  0  0
 17 90  1  0  0  0
 20 91  1  0  0  0
 21 92  1  0  0  0
 23 93  1  0  0  0
 24 94  1  0  0  0
 25 95  1  0  0  0
 25 96  1  0  0  0
 30 97  1  0  0  0
 32 98  1  0  0  0
 33 99  1  0  0  0
 34100  1  0  0  0
 37101  1  0  0  0
 38102  1  0  0  0
 38103  1  0  0  0
 38104  1  0  0  0
 39105  1  0  0  0
 39106  1  0  0  0
 39107  1  0  0  0
 40108  1  0  0  0
 41109  1  0  0  0
 44110  1  0  0  0
 45111  1  0  0  0
 45112  1  0  0  0
 45113  1  0  0  0
 46114  1  0  0  0
 46115  1  0  0  0
 46116  1  0  0  0
 47117  1  0  0  0
 48118  1  0  0  0
 51119  1  0  0  0
 51120  1  0  0  0
 52121  1  0  0  0
 52122  1  0  0  0
 53123  1  0  0  0
 53124  1  0  0  0
 54125  1  0  0  0
 56126  1  0  0  0
 56127  1  0  0  0
 57128  1  0  0  0
 58129  1  0  0  0
 59130  1  0  0  0
 62131  1  0  0  0
 62132  1  0  0  0
 64133  1  0  0  0
 65134  1  0  0  0
 66135  1  0  0  0
 67136  1  0  0  0
 69137  1  0  0  0
 70138  1  0  0  0
 71139  1  0  0  0
 74140  1  0  0  0
 74141  1  0  0  0
 74142  1  0  0  0
 75143  1  0  0  0
M  END
$$$$
