4jjf_ligand
  -I-interpret- 

 83 90  0  0  0  0  0  0  0  0999 V2000
  -16.5840  -15.5820  -20.7280 O   0  0  0  0  0
  -15.7010  -18.6130  -21.8810 C   0  0  0  0  0
  -16.1630  -19.6020  -21.3570 O   0  0  0  0  0
  -15.3590  -17.8570  -24.4580 C   0  0  0  0  0
  -15.5660  -18.3700  -25.5500 O   0  0  0  0  0
  -13.1090  -17.6790  -22.4180 C   0  0  0  0  0
  -12.5310  -18.2250  -23.6130 O   0  0  0  0  0
  -12.2620  -17.0730  -21.3220 C   0  0  0  0  0
  -13.2610  -16.3990  -20.4470 C   0  0  0  0  0
  -14.5180  -16.2660  -20.9050 N   0  0  0  0  0
  -12.8580  -15.8650  -19.2210 C   0  0  0  0  0
  -11.4400  -15.9660  -18.7210 C   0  0  0  0  0
  -13.7830  -15.2050  -18.4300 C   0  0  0  0  0
  -15.0910  -15.0580  -18.9020 C   0  0  0  0  0
  -16.1540  -14.3230  -18.1070 C   0  0  0  0  0
  -15.3950  -15.6300  -20.1340 C   0  0  0  0  0
  -13.3680  -14.6790  -17.2280 O   0  0  0  0  0
  -13.7600  -15.3410  -15.7940 P   0  0  0  0  0
  -14.1220  -14.2780  -14.8080 O   0  0  0  0  0
  -14.6380  -16.5680  -16.0230 O   0  0  0  0  0
  -12.3210  -15.9720  -15.3940 O   0  0  0  0  0
  -11.2170  -15.1270  -15.0650 C   0  0  0  0  0
  -10.5180  -15.8820  -13.9520 C   0  0  0  0  0
   -9.2400  -15.3360  -13.7420 O   0  0  0  0  0
   -9.0260  -15.4480  -12.3780 C   0  0  0  0  0
  -10.3430  -15.1170  -11.7450 C   0  0  0  0  0
  -10.3930  -15.5560  -10.3960 O   0  0  0  0  0
  -11.2750  -15.9030  -12.6180 C   0  0  0  0  0
  -11.3840  -17.2390  -12.1110 O   0  0  0  0  0
   -7.8790  -14.5900  -11.9650 N   0  0  0  0  0
   -6.6840  -15.1260  -11.8040 C   0  0  0  0  0
   -6.1710  -16.3850  -11.9060 N   0  0  0  0  0
   -4.8600  -16.6170  -11.6280 C   0  0  0  0  0
   -4.3810  -17.8760  -11.7150 N   0  0  0  0  0
   -4.0440  -15.6080  -11.2620 N   0  0  0  0  0
   -4.5450  -14.3480  -11.1480 C   0  0  0  0  0
   -3.7440  -13.3390  -10.7930 O   0  0  0  0  0
   -5.8850  -14.0720  -11.4180 C   0  0  0  0  0
   -6.6460  -12.9410  -11.4000 N   0  0  0  0  0
   -7.9250  -13.2590  -11.7340 C   0  0  0  0  0
  -16.4800  -16.0690  -22.1040 C   0  0  0  0  0
  -17.5220  -15.8350  -22.7520 N   0  0  0  0  0
  -17.8640  -16.1640  -24.0600 C   0  0  0  0  0
  -19.0680  -16.8850  -24.1720 C   0  0  0  0  0
  -19.5430  -17.2810  -25.4210 C   0  0  0  0  0
  -18.8090  -16.9470  -26.5610 C   0  0  0  0  0
  -17.6020  -16.2080  -26.4490 C   0  0  0  0  0
  -17.1250  -15.7930  -25.1950 C   0  0  0  0  0
  -19.3050  -17.3480  -27.8120 C   0  0  0  0  0
  -18.5740  -17.0230  -28.9580 C   0  0  0  0  0
  -17.3740  -16.2990  -28.8450 C   0  0  0  0  0
  -16.8810  -15.8890  -27.6040 C   0  0  0  0  0
  -14.9870  -17.1060  -22.7460 Fe  0  0  0  0  0
  -15.6496  -18.1057  -20.9176 H   0  0  0  0  0
  -16.1334  -17.1116  -24.6390 H   0  0  0  0  0
  -11.5097  -16.3843  -21.7064 H   0  0  0  0  0
  -11.6725  -17.8181  -20.7878 H   0  0  0  0  0
  -11.1632  -17.0161  -18.6270 H   0  0  0  0  0
  -10.7711  -15.4744  -19.4274 H   0  0  0  0  0
  -11.3637  -15.4804  -17.7482 H   0  0  0  0  0
  -16.2950  -14.8185  -17.1464 H   0  0  0  0  0
  -15.8362  -13.2934  -17.9430 H   0  0  0  0  0
  -17.0918  -14.3310  -18.6625 H   0  0  0  0  0
  -14.2356  -17.1279  -16.6909 H   0  0  0  0  0
  -11.5297  -14.1278  -14.7617 H   0  0  0  0  0
  -10.5647  -14.9385  -15.9177 H   0  0  0  0  0
  -10.4642  -16.9170  -14.2896 H   0  0  0  0  0
   -8.7260  -16.4446  -12.0541 H   0  0  0  0  0
  -10.5676  -14.0518  -11.6901 H   0  0  0  0  0
  -11.2464  -15.3303  -10.0186 H   0  0  0  0  0
  -12.2922  -15.5169  -12.6829 H   0  0  0  0  0
  -11.8604  -17.2259  -11.2777 H   0  0  0  0  0
   -5.0003  -18.6396  -11.9866 H   0  0  0  0  0
   -3.3998  -18.0637  -11.5092 H   0  0  0  0  0
   -4.2520  -12.5251  -10.7598 H   0  0  0  0  0
   -8.7869  -12.5951  -11.8001 H   0  0  0  0  0
  -19.6334  -17.1356  -23.2744 H   0  0  0  0  0
  -20.4731  -17.8428  -25.5066 H   0  0  0  0  0
  -16.2127  -15.2033  -25.1058 H   0  0  0  0  0
  -20.2410  -17.9014  -27.8878 H   0  0  0  0  0
  -18.9342  -17.3309  -29.9396 H   0  0  0  0  0
  -16.8150  -16.0517  -29.7475 H   0  0  0  0  0
  -15.9484  -15.3289  -27.5369 H   0  0  0  0  0
 16  1  1  0  0  0
  1 41  1  0  0  0
  2  3  2  0  0  0
  4  5  2  0  0  0
  6  7  2  0  0  0
  6  8  1  0  0  0
  8  9  1  0  0  0
  9 10  4  0  0  0
  9 11  4  0  0  0
 10 16  4  0  0  0
 11 12  1  0  0  0
 11 13  4  0  0  0
 13 14  4  0  0  0
 13 17  1  0  0  0
 14 15  1  0  0  0
 16 14  4  0  0  0
 17 18  1  0  0  0
 18 19  2  0  0  0
 18 20  1  0  0  0
 18 21  1  0  0  0
 21 22  1  0  0  0
 22 23  1  0  0  0
 23 24  1  0  0  0
 23 28  1  0  0  0
 24 25  1  0  0  0
 26 25  1  0  0  0
 25 30  1  0  0  0
 26 27  1  0  0  0
 28 26  1  0  0  0
 28 29  1  0  0  0
 30 31  4  0  0  0
 30 40  4  0  0  0
 31 32  4  0  0  0
 31 38  4  0  0  0
 32 33  4  0  0  0
 33 34  1  0  0  0
 33 35  4  0  0  0
 36 35  4  0  0  0
 36 37  1  0  0  0
 38 36  4  0  0  0
 39 38  4  0  0  0
 40 39  4  0  0  0
 41 42  2  0  0  0
 42 43  1  0  0  0
 43 44  4  0  0  0
 43 48  4  0  0  0
 44 45  4  0  0  0
 45 46  4  0  0  0
 47 46  4  0  0  0
 46 49  4  0  0  0
 48 47  4  0  0  0
 47 52  4  0  0  0
 49 50  4  0  0  0
 51 50  4  0  0  0
 52 51  4  0  0  0
 53  2  1  0  0  0
 53  4  1  0  0  0
 53  6  1  0  0  0
 53 10  1  0  0  0
 53 41  1  0  0  0
  2 54  1  0  0  0
  4 55  1  0  0  0
  8 56  1  0  0  0
  8 57  1  0  0  0
 12 58  1  0  0  0
 12 59  1  0  0  0
 12 60  1  0  0  0
 15 61  1  0  0  0
 15 62  1  0  0  0
 15 63  1  0  0  0
 20 64  1  0  0  0
 22 65  1  0  0  0
 22 66  1  0  0  0
 23 67  1  0  0  0
 25 68  1  0  0  0
 26 69  1  0  0  0
 27 70  1  0  0  0
 28 71  1  0  0  0
 29 72  1  0  0  0
 34 73  1  0  0  0
 34 74  1  0  0  0
 37 75  1  0  0  0
 40 76  1  0  0  0
 44 77  1  0  0  0
 45 78  1  0  0  0
 48 79  1  0  0  0
 49 80  1  0  0  0
 50 81  1  0  0  0
 51 82  1  0  0  0
 52 83  1  0  0  0
M  END
$$$$
