4jjg_ligand
  -I-interpret- 

 89 95  0  0  0  0  0  0  0  0999 V2000
   -5.5000  -22.0930  -29.1620 O   0  0  0  0  0
   -7.4540  -21.4650  -27.0910 Fe  0  0  0  0  0
   -8.4720  -22.7400  -27.9370 C   0  0  0  0  0
   -9.1350  -23.5720  -28.4690 O   0  0  0  0  0
   -7.7410  -22.2040  -25.4160 C   0  0  0  0  0
   -7.9540  -22.6780  -24.3300 O   0  0  0  0  0
   -8.7670  -19.9990  -27.3370 C   0  0  0  0  0
   -9.5750  -20.0020  -26.1650 O   0  0  0  0  0
   -8.9010  -19.0390  -28.4610 C   0  0  0  0  0
   -7.8090  -19.5400  -29.3600 C   0  0  0  0  0
   -7.1180  -20.5950  -28.9340 N   0  0  0  0  0
   -7.5750  -18.9240  -30.5830 C   0  0  0  0  0
   -8.3940  -17.7290  -31.0230 C   0  0  0  0  0
   -6.5680  -19.4130  -31.3850 C   0  0  0  0  0
   -5.7970  -20.5080  -30.9280 C   0  0  0  0  0
   -4.6720  -21.1140  -31.7360 C   0  0  0  0  0
   -6.1520  -21.0390  -29.6830 C   0  0  0  0  0
   -6.3270  -18.7950  -32.5840 O   0  0  0  0  0
   -6.7210  -19.4020  -34.0190 P   0  0  0  0  0
   -5.6010  -19.1140  -35.0200 O   0  0  0  0  0
   -7.2400  -20.8230  -33.8630 O   0  0  0  0  0
   -8.0180  -18.5120  -34.2990 O   0  0  0  0  0
   -7.8960  -17.1440  -34.7080 C   0  0  0  0  0
   -8.8500  -16.9360  -35.8850 C   0  0  0  0  0
   -9.0340  -15.5480  -36.1250 O   0  0  0  0  0
   -9.2710  -15.3790  -37.5180 C   0  0  0  0  0
   -8.2940  -16.3370  -38.1520 C   0  0  0  0  0
   -8.7820  -16.6680  -39.4520 O   0  0  0  0  0
   -8.3360  -17.5040  -37.1880 C   0  0  0  0  0
   -9.3450  -18.4220  -37.5970 O   0  0  0  0  0
   -9.1410  -13.9530  -37.9150 N   0  0  0  0  0
  -10.1790  -13.1280  -38.0510 C   0  0  0  0  0
  -11.5230  -13.2940  -37.9200 N   0  0  0  0  0
  -12.3910  -12.2950  -38.1530 C   0  0  0  0  0
  -13.7240  -12.5540  -37.9980 N   0  0  0  0  0
  -11.9370  -11.0620  -38.5090 N   0  0  0  0  0
  -10.5950  -10.8390  -38.6470 C   0  0  0  0  0
  -10.1170   -9.6080  -38.9950 O   0  0  0  0  0
   -9.6880  -11.8870  -38.4260 C   0  0  0  0  0
   -8.3490  -12.0020  -38.4870 N   0  0  0  0  0
   -8.0190  -13.2670  -38.1690 C   0  0  0  0  0
   -2.3980  -24.2360  -29.3210 O   0  0  0  0  0
   -2.8610  -24.0260  -27.9780 S   0  0  0  0  0
   -2.5270  -25.1830  -27.1820 O   0  0  0  0  0
   -2.1460  -22.6670  -27.2810 C   0  0  0  0  0
   -2.1040  -21.3490  -28.0560 C   0  0  0  0  0
   -2.7740  -20.2240  -27.5380 C   0  0  0  0  0
   -2.7500  -18.9920  -28.2070 C   0  0  0  0  0
   -2.0420  -18.8750  -29.4070 C   0  0  0  0  0
   -2.0180  -17.5600  -30.1500 C   0  0  0  0  0
   -1.3590  -19.9890  -29.9210 C   0  0  0  0  0
   -1.3790  -21.2200  -29.2490 C   0  0  0  0  0
   -4.4440  -23.9430  -28.0250 C   0  0  0  0  0
   -5.4420  -23.2830  -27.2890 N   0  0  0  0  0
   -6.0020  -22.3560  -27.8980 C   0  0  0  0  0
   -8.2133  -22.3147  -28.9067 H   0  0  0  0  0
   -6.6822  -22.4476  -25.3284 H   0  0  0  0  0
   -8.8044  -17.9919  -28.1740 H   0  0  0  0  0
   -9.8892  -19.0172  -28.9204 H   0  0  0  0  0
   -9.4455  -18.0109  -31.0772 H   0  0  0  0  0
   -8.2700  -16.9202  -30.3029 H   0  0  0  0  0
   -8.0540  -17.3987  -32.0045 H   0  0  0  0  0
   -5.0646  -21.4822  -32.6838 H   0  0  0  0  0
   -3.9130  -20.3551  -31.9259 H   0  0  0  0  0
   -4.2302  -21.9401  -31.1788 H   0  0  0  0  0
   -5.3880  -18.1781  -34.9997 H   0  0  0  0  0
   -6.8702  -16.9217  -35.0019 H   0  0  0  0  0
   -8.1490  -16.4741  -33.8863 H   0  0  0  0  0
   -9.7682  -17.4481  -35.5974 H   0  0  0  0  0
  -10.2847  -15.6101  -37.8454 H   0  0  0  0  0
   -7.2780  -15.9702  -38.2981 H   0  0  0  0  0
   -8.1738  -17.2786  -39.8750 H   0  0  0  0  0
   -7.3593  -17.9842  -37.1289 H   0  0  0  0  0
   -9.0881  -18.8289  -38.4277 H   0  0  0  0  0
  -14.0332  -13.4834  -37.7134 H   0  0  0  0  0
  -14.4096  -11.8179  -38.1669 H   0  0  0  0  0
  -12.5988  -10.3034  -38.6730 H   0  0  0  0  0
   -7.0061  -13.6673  -38.1253 H   0  0  0  0  0
   -1.0994  -22.9431  -27.1525 H   0  0  0  0  0
   -2.7604  -22.4517  -26.4068 H   0  0  0  0  0
   -3.3214  -20.3126  -26.5996 H   0  0  0  0  0
   -3.2789  -18.1326  -27.7950 H   0  0  0  0  0
   -3.0360  -17.2767  -30.4175 H   0  0  0  0  0
   -1.5814  -16.7916  -29.5120 H   0  0  0  0  0
   -1.4194  -17.6662  -31.0547 H   0  0  0  0  0
   -0.8055  -19.8958  -30.8554 H   0  0  0  0  0
   -0.8331  -22.0728  -29.6526 H   0  0  0  0  0
   -4.6609  -24.9605  -27.6997 H   0  0  0  0  0
   -4.5408  -23.3806  -28.9537 H   0  0  0  0  0
  1 17  1  0  0  0
  3  4  2  0  0  0
  5  6  2  0  0  0
  7  8  2  0  0  0
  9  7  1  0  0  0
 10  9  1  0  0  0
 11 10  4  0  0  0
 10 12  4  0  0  0
 17 11  4  0  0  0
 12 13  1  0  0  0
 14 12  4  0  0  0
 15 14  4  0  0  0
 14 18  1  0  0  0
 15 16  1  0  0  0
 17 15  4  0  0  0
 18 19  1  0  0  0
 19 20  1  0  0  0
 19 21  2  0  0  0
 19 22  1  0  0  0
 22 23  1  0  0  0
 23 24  1  0  0  0
 24 25  1  0  0  0
 24 29  1  0  0  0
 25 26  1  0  0  0
 27 26  1  0  0  0
 26 31  1  0  0  0
 27 28  1  0  0  0
 29 27  1  0  0  0
 29 30  1  0  0  0
 31 32  4  0  0  0
 31 41  4  0  0  0
 32 33  1  0  0  0
 32 39  4  0  0  0
 33 34  2  0  0  0
 34 35  1  0  0  0
 34 36  1  0  0  0
 37 36  1  0  0  0
 37 38  2  0  0  0
 39 37  1  0  0  0
 40 39  4  0  0  0
 41 40  4  0  0  0
  2  3  1  0  0  0
  2  5  1  0  0  0
 43 42  2  0  0  0
 43 44  2  0  0  0
 43 45  1  0  0  0
 53 43  1  0  0  0
 45 46  1  0  0  0
 46 47  4  0  0  0
 46 52  4  0  0  0
 47 48  4  0  0  0
 48 49  4  0  0  0
 49 50  1  0  0  0
 51 49  4  0  0  0
 52 51  4  0  0  0
 54 53  1  0  0  0
 55 54  2  0  0  0
 55  1  1  0  0  0
 55  2  1  0  0  0
  2  7  1  0  0  0
  2 11  1  0  0  0
  3 56  1  0  0  0
  5 57  1  0  0  0
  9 58  1  0  0  0
  9 59  1  0  0  0
 13 60  1  0  0  0
 13 61  1  0  0  0
 13 62  1  0  0  0
 16 63  1  0  0  0
 16 64  1  0  0  0
 16 65  1  0  0  0
 20 66  1  0  0  0
 23 67  1  0  0  0
 23 68  1  0  0  0
 24 69  1  0  0  0
 26 70  1  0  0  0
 27 71  1  0  0  0
 28 72  1  0  0  0
 29 73  1  0  0  0
 30 74  1  0  0  0
 35 75  1  0  0  0
 35 76  1  0  0  0
 36 77  1  0  0  0
 41 78  1  0  0  0
 45 79  1  0  0  0
 45 80  1  0  0  0
 47 81  1  0  0  0
 48 82  1  0  0  0
 50 83  1  0  0  0
 50 84  1  0  0  0
 50 85  1  0  0  0
 51 86  1  0  0  0
 52 87  1  0  0  0
 53 88  1  0  0  0
 53 89  1  0  0  0
M  END
$$$$
