4jzb_ligand
  -I-interpret- 

 39 40  0  0  0  0  0  0  0  0999 V2000
   54.9420   44.2800   38.4620 C   0  0  0  0  0
   54.8560   45.5830   39.2760 C   0  0  0  0  0
   56.4060   45.9330   40.1850 P   0  0  0  0  0
   56.6590   44.8460   41.2030 O   0  0  0  0  0
   56.1870   47.2900   40.8060 O   0  0  0  0  0
   55.9330   44.1720   37.3790 N   0  0  0  0  0
   57.5040   45.9920   39.1500 O   0  0  0  0  0
   56.1550   45.1770   36.5010 C   0  0  0  0  0
   54.6160   46.7070   38.4030 O   0  0  0  0  0
   57.0920   45.0370   35.4760 C   0  0  0  0  0
   53.3750   45.3750   40.3370 P   0  0  0  0  0
   57.7970   43.8420   35.3550 C   0  0  0  0  0
   53.2480   46.6490   41.1350 O   0  0  0  0  0
   57.5570   42.8050   36.2570 C   0  0  0  0  0
   53.6510   44.1620   41.1870 O   0  0  0  0  0
   56.6040   43.0060   37.2590 C   0  0  0  0  0
   52.2240   45.1590   39.3820 O   0  0  0  0  0
   58.2930   41.5030   36.1600 C   0  0  0  0  0
   58.8120   41.0660   34.9420 C   0  0  0  0  0
   59.5020   39.8590   34.8520 C   0  0  0  0  0
   59.6660   39.0530   35.9800 C   0  0  0  0  0
   59.1450   39.4760   37.2060 C   0  0  0  0  0
   58.4750   40.7020   37.2890 C   0  0  0  0  0
   53.9756   44.1981   37.9644 H   0  0  0  0  0
   55.2354   43.5188   39.1849 H   0  0  0  0  0
   56.7904   44.0096   40.7504 H   0  0  0  0  0
   57.6283   45.1206   38.7669 H   0  0  0  0  0
   55.5952   46.1075   36.5952 H   0  0  0  0  0
   55.3787   46.8381   37.8349 H   0  0  0  0  0
   57.2701   45.8545   34.7774 H   0  0  0  0  0
   58.5322   43.7176   34.5600 H   0  0  0  0  0
   53.0734   47.3819   40.5400 H   0  0  0  0  0
   56.3965   42.2000   37.9628 H   0  0  0  0  0
   52.0859   45.9552   38.8638 H   0  0  0  0  0
   58.6762   41.6762   34.0491 H   0  0  0  0  0
   59.9163   39.5420   33.8949 H   0  0  0  0  0
   60.1952   38.1030   35.9053 H   0  0  0  0  0
   59.2600   38.8538   38.0936 H   0  0  0  0  0
   58.0887   41.0372   38.2515 H   0  0  0  0  0
  1  2  1  0  0  0
  1  6  1  0  0  0
  2  3  1  0  0  0
  2  9  1  0  0  0
  2 11  1  0  0  0
  3  4  1  0  0  0
  3  5  2  0  0  0
  3  7  1  0  0  0
  6  8  4  0  0  0
  6 16  4  0  0  0
  8 10  4  0  0  0
 10 12  4  0  0  0
 11 13  1  0  0  0
 11 15  2  0  0  0
 11 17  1  0  0  0
 12 14  4  0  0  0
 14 16  4  0  0  0
 14 18  1  0  0  0
 18 19  4  0  0  0
 18 23  4  0  0  0
 19 20  4  0  0  0
 20 21  4  0  0  0
 21 22  4  0  0  0
 22 23  4  0  0  0
  1 24  1  0  0  0
  1 25  1  0  0  0
  4 26  1  0  0  0
  7 27  1  0  0  0
  8 28  1  0  0  0
  9 29  1  0  0  0
 10 30  1  0  0  0
 12 31  1  0  0  0
 13 32  1  0  0  0
 16 33  1  0  0  0
 17 34  1  0  0  0
 19 35  1  0  0  0
 20 36  1  0  0  0
 21 37  1  0  0  0
 22 38  1  0  0  0
 23 39  1  0  0  0
M  END
$$$$
