4kax_ligand
  -I-interpret- 

 47 49  0  0  0  0  0  0  0  0999 V2000
    0.4670    9.1120   50.8270 P   0  0  0  0  0
    0.8070    7.9570   49.9310 O   0  0  0  0  0
    0.0920   10.3060   49.9640 O   0  0  0  0  0
    1.6200    9.4840   51.7140 O   0  0  0  0  0
   -0.8430    8.7770   51.7590 O   0  0  0  0  0
   -0.8760    7.5390   52.8080 P   0  0  0  0  0
   -1.4030    6.3140   52.1480 O   0  0  0  0  0
    0.4590    7.3590   53.4750 O   0  0  0  0  0
   -1.9550    7.9970   53.9230 O   0  0  0  0  0
   -1.6510    8.4750   55.4220 P   0  0  0  0  0
   -0.8110    9.7170   55.4740 O   0  0  0  0  0
   -1.0990    7.3630   56.2840 O   0  0  0  0  0
   -3.1630    8.8130   55.8970 O   0  0  0  0  0
   -3.8640    9.8940   55.3060 C   0  0  0  0  0
   -4.9000   10.4380   56.2920 C   0  0  0  0  0
   -5.8030    9.4010   56.6350 O   0  0  0  0  0
   -4.2340   10.8910   57.5810 C   0  0  0  0  0
   -4.8450   12.0650   58.0620 O   0  0  0  0  0
   -4.4880    9.7410   58.5330 C   0  0  0  0  0
   -4.5500   10.1440   59.8750 O   0  0  0  0  0
   -5.8240    9.2300   58.0400 C   0  0  0  0  0
   -6.0490    7.8230   58.4050 N   0  0  0  0  0
   -5.1870    6.7620   58.2970 C   0  0  0  0  0
   -5.8100    5.6540   58.7490 N   0  0  0  0  0
   -7.0670    5.9890   59.1370 C   0  0  0  0  0
   -8.1320    5.2640   59.6720 C   0  0  0  0  0
   -8.0410    4.0550   59.8690 O   0  0  0  0  0
   -9.3180    5.9140   59.9750 N   0  0  0  0  0
   -9.4430    7.2670   59.7470 C   0  0  0  0  0
  -10.5820    7.8920   60.0430 N   0  0  0  0  0
   -8.3850    7.9830   59.2220 N   0  0  0  0  0
   -7.2210    7.3540   58.9220 C   0  0  0  0  0
   -0.1275   11.0510   50.5283 H   0  0  0  0  0
    1.3677   10.2237   52.2715 H   0  0  0  0  0
    0.7298    8.1884   53.8754 H   0  0  0  0  0
   -1.6697    6.5940   56.2165 H   0  0  0  0  0
   -4.3701    9.5469   54.4052 H   0  0  0  0  0
   -3.1589   10.6848   55.0500 H   0  0  0  0  0
   -5.4085   11.2775   55.8179 H   0  0  0  0  0
   -3.1753   11.1188   57.4566 H   0  0  0  0  0
   -4.4143   12.3385   58.8752 H   0  0  0  0  0
   -3.6912    8.9972   58.5306 H   0  0  0  0  0
   -4.7121    9.3782   60.4308 H   0  0  0  0  0
   -6.6450    9.7789   58.5013 H   0  0  0  0  0
   -4.1688    6.8064   57.9106 H   0  0  0  0  0
  -11.3629    7.3687   60.4390 H   0  0  0  0  0
   -8.4789    8.9856   59.0597 H   0  0  0  0  0
  1  2  2  0  0  0
  1  3  1  0  0  0
  1  4  1  0  0  0
  1  5  1  0  0  0
  5  6  1  0  0  0
  6  7  2  0  0  0
  6  8  1  0  0  0
  6  9  1  0  0  0
  9 10  1  0  0  0
 10 11  2  0  0  0
 10 12  1  0  0  0
 10 13  1  0  0  0
 13 14  1  0  0  0
 14 15  1  0  0  0
 15 16  1  0  0  0
 15 17  1  0  0  0
 16 21  1  0  0  0
 17 18  1  0  0  0
 17 19  1  0  0  0
 19 20  1  0  0  0
 19 21  1  0  0  0
 21 22  1  0  0  0
 22 23  4  0  0  0
 22 32  4  0  0  0
 23 24  4  0  0  0
 24 25  4  0  0  0
 25 26  1  0  0  0
 25 32  4  0  0  0
 26 27  2  0  0  0
 26 28  1  0  0  0
 28 29  4  0  0  0
 29 30  2  0  0  0
 29 31  1  0  0  0
 31 32  1  0  0  0
  3 33  1  0  0  0
  4 34  1  0  0  0
  8 35  1  0  0  0
 12 36  1  0  0  0
 14 37  1  0  0  0
 14 38  1  0  0  0
 15 39  1  0  0  0
 17 40  1  0  0  0
 18 41  1  0  0  0
 19 42  1  0  0  0
 20 43  1  0  0  0
 21 44  1  0  0  0
 23 45  1  0  0  0
 30 46  1  0  0  0
 31 47  1  0  0  0
M  END
$$$$
