4ksy_ligand
  -I-interpret- 

 68 74  0  0  0  0  0  0  0  0999 V2000
   52.2850    8.6450  -17.4450 C   0  0  0  0  0
   49.6710   10.9640  -18.6860 N   0  0  0  0  0
   50.4240    9.7210  -18.4170 C   0  0  0  0  0
   51.5720    9.7460  -17.7220 N   0  0  0  0  0
   51.8610    7.4660  -17.8650 N   0  0  0  0  0
   50.7070    7.3220  -18.5710 C   0  0  0  0  0
   49.9320    8.4630  -18.8840 C   0  0  0  0  0
   48.8460    8.0280  -19.5990 N   0  0  0  0  0
   48.9040    6.6800  -19.7520 C   0  0  0  0  0
   50.0210    6.2780  -19.1410 N   0  0  0  0  0
   50.6820    5.0190  -18.9280 C   0  0  0  0  0
   50.3800    4.5220  -17.6030 C   0  0  0  0  0
   51.4400    3.6300  -17.2290 O   0  0  0  0  0
   49.1380    3.7640  -17.7640 C   0  0  0  0  0
   49.3700    3.0940  -19.0520 C   0  0  0  0  0
   48.0770    2.8130  -19.7600 C   0  0  0  0  0
   47.3510    4.0050  -19.8420 O   0  0  0  0  0
   45.8310    3.9760  -20.3360 P   0  0  0  0  0
   45.2100    5.3590  -20.4290 O   0  0  0  0  0
   44.9410    3.0300  -19.3560 O   0  0  0  0  0
   45.2380    3.1020  -17.9730 C   0  0  0  0  0
   45.2250    1.7570  -17.3180 C   0  0  0  0  0
   44.2030    0.9400  -17.8650 O   0  0  0  0  0
   44.8730    2.0310  -15.9330 C   0  0  0  0  0
   46.0690    2.1690  -15.0260 C   0  0  0  0  0
   46.8210    3.3290  -15.2750 O   0  0  0  0  0
   48.4210    3.2980  -15.2370 P   0  0  0  0  0
   49.0550    2.7930  -16.6760 O   0  0  0  0  0
   48.9350    4.6470  -14.8570 O   0  0  0  0  0
   48.8670    2.3150  -14.2230 O   0  0  0  0  0
   44.0510    3.2250  -15.9400 O   0  0  0  0  0
   44.1570    3.8380  -17.2540 C   0  0  0  0  0
   44.4350    5.1710  -17.0820 N   0  0  0  0  0
   45.4790    5.7220  -16.4980 C   0  0  0  0  0
   45.3480    7.0540  -16.5280 N   0  0  0  0  0
   43.5900    6.1640  -17.4820 C   0  0  0  0  0
   44.1750    7.3700  -17.1260 C   0  0  0  0  0
   43.4860    8.6660  -17.4440 C   0  0  0  0  0
   42.2310    8.6400  -18.1030 N   0  0  0  0  0
   41.6380    7.3850  -18.4560 C   0  0  0  0  0
   40.3750    7.3540  -19.1170 N   0  0  0  0  0
   42.3190    6.1330  -18.1560 N   0  0  0  0  0
   44.0020    9.7630  -17.1390 O   0  0  0  0  0
   45.8260    3.3320  -21.6550 O   0  0  0  0  0
   50.1540    4.0440  -19.8200 O   0  0  0  0  0
   53.2111    8.7221  -16.8754 H   0  0  0  0  0
   50.0222   11.8577  -18.3419 H   0  0  0  0  0
   48.8001   10.9282  -19.2157 H   0  0  0  0  0
   48.1813    6.0504  -20.2711 H   0  0  0  0  0
   51.7508    5.1763  -19.0727 H   0  0  0  0  0
   50.2827    5.3047  -16.8507 H   0  0  0  0  0
   51.2688    3.2817  -16.3510 H   0  0  0  0  0
   48.2179    4.3481  -17.7435 H   0  0  0  0  0
   49.8688    2.1336  -18.9221 H   0  0  0  0  0
   47.5055    2.0651  -19.2103 H   0  0  0  0  0
   48.2754    2.4274  -20.7600 H   0  0  0  0  0
   45.2181    5.7712  -19.5620 H   0  0  0  0  0
   46.2175    3.5765  -17.9139 H   0  0  0  0  0
   46.1790    1.2457  -17.4463 H   0  0  0  0  0
   44.2128    0.0837  -17.4311 H   0  0  0  0  0
   44.3269    1.1833  -15.5191 H   0  0  0  0  0
   46.7176    1.3107  -15.2015 H   0  0  0  0  0
   45.7017    2.2269  -14.0014 H   0  0  0  0  0
   48.6508    5.2918  -15.5090 H   0  0  0  0  0
   43.2407    3.7775  -17.8413 H   0  0  0  0  0
   46.3168    5.1796  -16.0598 H   0  0  0  0  0
   39.8938    8.2256  -19.3385 H   0  0  0  0  0
   41.8988    5.2422  -18.4213 H   0  0  0  0  0
  4  1  4  0  0  0
  1  5  4  0  0  0
  3  2  1  0  0  0
  3  4  4  0  0  0
  3  7  4  0  0  0
  5  6  4  0  0  0
  6  7  4  0  0  0
  6 10  4  0  0  0
  7  8  4  0  0  0
  8  9  4  0  0  0
  9 10  4  0  0  0
 10 11  1  0  0  0
 11 12  1  0  0  0
 11 45  1  0  0  0
 12 13  1  0  0  0
 12 14  1  0  0  0
 14 15  1  0  0  0
 14 28  1  0  0  0
 15 16  1  0  0  0
 15 45  1  0  0  0
 16 17  1  0  0  0
 17 18  1  0  0  0
 18 19  1  0  0  0
 18 20  1  0  0  0
 18 44  2  0  0  0
 20 21  1  0  0  0
 21 22  1  0  0  0
 21 32  1  0  0  0
 22 23  1  0  0  0
 22 24  1  0  0  0
 24 25  1  0  0  0
 24 31  1  0  0  0
 25 26  1  0  0  0
 26 27  1  0  0  0
 27 28  1  0  0  0
 27 29  1  0  0  0
 27 30  2  0  0  0
 31 32  1  0  0  0
 32 33  1  0  0  0
 33 34  4  0  0  0
 33 36  4  0  0  0
 34 35  4  0  0  0
 35 37  4  0  0  0
 36 37  4  0  0  0
 36 42  1  0  0  0
 37 38  1  0  0  0
 38 39  1  0  0  0
 38 43  2  0  0  0
 39 40  4  0  0  0
 40 41  2  0  0  0
 40 42  1  0  0  0
  1 46  1  0  0  0
  2 47  1  0  0  0
  2 48  1  0  0  0
  9 49  1  0  0  0
 11 50  1  0  0  0
 12 51  1  0  0  0
 13 52  1  0  0  0
 14 53  1  0  0  0
 15 54  1  0  0  0
 16 55  1  0  0  0
 16 56  1  0  0  0
 19 57  1  0  0  0
 21 58  1  0  0  0
 22 59  1  0  0  0
 23 60  1  0  0  0
 24 61  1  0  0  0
 25 62  1  0  0  0
 25 63  1  0  0  0
 29 64  1  0  0  0
 32 65  1  0  0  0
 34 66  1  0  0  0
 41 67  1  0  0  0
 42 68  1  0  0  0
M  END
$$$$
