4kva_ligand
  -I-interpret- 

 47 49  0  0  0  0  0  0  0  0999 V2000
  -39.0700  -19.7150  106.4760 P   0  0  0  0  0
  -40.4070  -20.4090  106.3980 O   0  0  0  0  0
  -39.0390  -18.5820  105.4790 O   0  0  0  0  0
  -37.9730  -20.6990  106.1430 O   0  0  0  0  0
  -38.8210  -19.0910  107.9470 O   0  0  0  0  0
  -39.8830  -19.1450  109.1640 P   0  0  0  0  0
  -40.8100  -20.3320  109.0560 O   0  0  0  0  0
  -40.6660  -17.8570  109.2030 O   0  0  0  0  0
  -38.9810  -19.2940  110.4930 O   0  0  0  0  0
  -38.8900  -20.6900  111.2930 P   0  0  0  0  0
  -38.6800  -21.8230  110.3150 O   0  0  0  0  0
  -40.1190  -20.9220  112.1400 O   0  0  0  0  0
  -37.5710  -20.5640  112.2020 O   0  0  0  0  0
  -36.6140  -19.5450  112.0300 C   0  0  0  0  0
  -35.5120  -19.7840  113.0530 C   0  0  0  0  0
  -35.7510  -18.9200  114.1450 O   0  0  0  0  0
  -35.5800  -21.2080  113.5790 C   0  0  0  0  0
  -34.2990  -21.7910  113.5460 O   0  0  0  0  0
  -36.0510  -21.0920  115.0130 C   0  0  0  0  0
  -35.2920  -21.9200  115.8610 O   0  0  0  0  0
  -35.8500  -19.6290  115.3630 C   0  0  0  0  0
  -37.0050  -19.1160  116.1160 N   0  0  0  0  0
  -38.3160  -19.4840  115.9610 C   0  0  0  0  0
  -39.0640  -18.7790  116.8400 N   0  0  0  0  0
  -38.2480  -17.9700  117.5530 C   0  0  0  0  0
  -38.4870  -17.0530  118.5690 C   0  0  0  0  0
  -39.6320  -16.8640  118.9740 O   0  0  0  0  0
  -37.4330  -16.3550  119.1210 N   0  0  0  0  0
  -36.1490  -16.5700  118.6620 C   0  0  0  0  0
  -35.1300  -15.8980  119.1890 N   0  0  0  0  0
  -35.9190  -17.4840  117.6530 N   0  0  0  0  0
  -36.9510  -18.1710  117.1070 C   0  0  0  0  0
  -38.1889  -18.1385  105.5266 H   0  0  0  0  0
  -37.1223  -20.2570  106.1927 H   0  0  0  0  0
  -40.2921  -21.1400  109.0327 H   0  0  0  0  0
  -37.8944  -21.6504  109.7909 H   0  0  0  0  0
  -37.0672  -18.5645  112.1763 H   0  0  0  0  0
  -36.2092  -19.5658  111.0182 H   0  0  0  0  0
  -34.5408  -19.6094  112.5899 H   0  0  0  0  0
  -36.2466  -21.8291  112.9806 H   0  0  0  0  0
  -34.3491  -22.6899  113.8794 H   0  0  0  0  0
  -37.0874  -21.4073  115.1333 H   0  0  0  0  0
  -35.6089  -21.8291  116.7626 H   0  0  0  0  0
  -34.9564  -19.5094  115.9755 H   0  0  0  0  0
  -38.6920  -20.2198  115.2501 H   0  0  0  0  0
  -35.2960  -15.2217  119.9343 H   0  0  0  0  0
  -34.9688  -17.6425  117.3176 H   0  0  0  0  0
  1  2  2  0  0  0
  1  3  1  0  0  0
  1  4  1  0  0  0
  1  5  1  0  0  0
  5  6  1  0  0  0
  6  7  1  0  0  0
  6  8  2  0  0  0
  6  9  1  0  0  0
  9 10  1  0  0  0
 10 11  1  0  0  0
 10 12  2  0  0  0
 10 13  1  0  0  0
 13 14  1  0  0  0
 14 15  1  0  0  0
 15 16  1  0  0  0
 15 17  1  0  0  0
 16 21  1  0  0  0
 17 18  1  0  0  0
 17 19  1  0  0  0
 19 20  1  0  0  0
 19 21  1  0  0  0
 21 22  1  0  0  0
 22 23  4  0  0  0
 22 32  4  0  0  0
 23 24  4  0  0  0
 24 25  4  0  0  0
 25 26  1  0  0  0
 25 32  4  0  0  0
 26 27  2  0  0  0
 26 28  1  0  0  0
 28 29  4  0  0  0
 29 30  2  0  0  0
 29 31  1  0  0  0
 31 32  1  0  0  0
  3 33  1  0  0  0
  4 34  1  0  0  0
  7 35  1  0  0  0
 11 36  1  0  0  0
 14 37  1  0  0  0
 14 38  1  0  0  0
 15 39  1  0  0  0
 17 40  1  0  0  0
 18 41  1  0  0  0
 19 42  1  0  0  0
 20 43  1  0  0  0
 21 44  1  0  0  0
 23 45  1  0  0  0
 30 46  1  0  0  0
 31 47  1  0  0  0
M  END
$$$$
