4lhv_ligand
  -I-interpret- 

 42 44  0  0  0  0  0  0  0  0999 V2000
   -7.0760   36.3730   30.2070 P   0  0  0  0  0
   -6.2400   36.7200   31.4380 O   0  0  0  0  0
   -6.3540   35.2560   29.5300 O   0  0  0  0  0
   -8.5230   35.9550   30.4020 O   0  0  0  0  0
   -7.1450   37.5560   29.1370 O   0  0  0  0  0
   -6.2680   38.9100   29.1240 P   0  0  0  0  0
   -4.8340   38.5650   29.1550 O   0  0  0  0  0
   -6.6730   39.8670   30.2350 O   0  0  0  0  0
   -6.7630   39.5950   27.7810 O   0  0  0  0  0
   -6.5910   38.9240   26.5330 C   0  0  0  0  0
   -6.4560   39.9440   25.4170 C   0  0  0  0  0
   -7.6910   40.6390   25.2940 O   0  0  0  0  0
   -5.4050   41.0220   25.6420 C   0  0  0  0  0
   -4.8410   41.3690   24.3700 O   0  0  0  0  0
   -6.2080   42.1940   26.1540 C   0  0  0  0  0
   -5.6410   43.4660   25.8950 O   0  0  0  0  0
   -7.5270   42.0450   25.4270 C   0  0  0  0  0
   -8.6970   42.5480   26.2060 N   0  0  0  0  0
   -9.0500   42.1690   27.4610 C   0  0  0  0  0
  -10.1610   42.8180   27.8530 N   0  0  0  0  0
  -10.5370   43.6020   26.8300 C   0  0  0  0  0
  -11.6310   44.5280   26.5540 C   0  0  0  0  0
  -12.5330   44.7540   27.3880 O   0  0  0  0  0
  -11.6530   45.1190   25.3580 N   0  0  0  0  0
  -10.7210   44.9050   24.4270 C   0  0  0  0  0
  -10.8490   45.5410   23.2900 N   0  0  0  0  0
   -9.7020   44.0670   24.5680 N   0  0  0  0  0
   -9.5640   43.4230   25.7520 C   0  0  0  0  0
   -6.6599   37.4386   31.9164 H   0  0  0  0  0
   -9.0036   36.6630   30.8371 H   0  0  0  0  0
   -7.6117   40.0560   30.1667 H   0  0  0  0  0
   -7.4575   38.2913   26.3409 H   0  0  0  0  0
   -5.6901   38.3118   26.5735 H   0  0  0  0  0
   -6.1625   39.3665   24.5404 H   0  0  0  0  0
   -4.6024   40.7219   26.3157 H   0  0  0  0  0
   -4.1745   42.0491   24.4916 H   0  0  0  0  0
   -6.2736   42.1686   27.2417 H   0  0  0  0  0
   -6.2132   44.1490   26.2524 H   0  0  0  0  0
   -7.4988   42.6119   24.4964 H   0  0  0  0  0
   -8.5091   41.4412   28.0658 H   0  0  0  0  0
  -11.6382   46.1704   23.1437 H   0  0  0  0  0
   -9.0412   43.9120   23.8066 H   0  0  0  0  0
  1  2  1  0  0  0
  1  3  2  0  0  0
  1  4  1  0  0  0
  1  5  1  0  0  0
  5  6  1  0  0  0
  6  7  2  0  0  0
  6  8  1  0  0  0
  6  9  1  0  0  0
  9 10  1  0  0  0
 10 11  1  0  0  0
 11 12  1  0  0  0
 11 13  1  0  0  0
 12 17  1  0  0  0
 13 14  1  0  0  0
 13 15  1  0  0  0
 15 16  1  0  0  0
 15 17  1  0  0  0
 17 18  1  0  0  0
 18 19  4  0  0  0
 18 28  4  0  0  0
 19 20  4  0  0  0
 20 21  4  0  0  0
 21 22  1  0  0  0
 21 28  4  0  0  0
 22 23  2  0  0  0
 22 24  1  0  0  0
 24 25  4  0  0  0
 25 26  2  0  0  0
 25 27  1  0  0  0
 27 28  1  0  0  0
  2 29  1  0  0  0
  4 30  1  0  0  0
  8 31  1  0  0  0
 10 32  1  0  0  0
 10 33  1  0  0  0
 11 34  1  0  0  0
 13 35  1  0  0  0
 14 36  1  0  0  0
 15 37  1  0  0  0
 16 38  1  0  0  0
 17 39  1  0  0  0
 19 40  1  0  0  0
 26 41  1  0  0  0
 27 42  1  0  0  0
M  END
$$$$
