4lkl_ligand
  -I-interpret- 

129133  0  0  0  0  0  0  0  0999 V2000
    6.4910   17.2570   15.4600 C   0  0  0  0  0
    6.6760   18.1370   14.6160 O   0  0  0  0  0
    5.1540   17.1140   16.1660 C   0  0  0  0  0
    7.4530   16.3830   15.7880 N   0  0  0  0  0
    8.7810   16.4220   15.1730 C   0  0  0  0  0
    8.7810   15.7970   13.7800 C   0  0  0  0  0
    7.9190   14.9840   13.4620 O   0  0  0  0  0
    9.6300   15.6350   16.1640 C   0  0  0  0  0
    8.6760   14.5630   16.5970 C   0  0  0  0  0
    7.3880   15.3340   16.8250 C   0  0  0  0  0
    9.7500   16.1840   12.9550 N   0  0  0  0  0
    9.8600   15.6590   11.5990 C   0  0  0  0  0
   10.8250   14.4830   11.5170 C   0  0  0  0  0
   11.0090   13.8880   10.4570 O   0  0  0  0  0
   10.3030   16.7680   10.6420 C   0  0  0  0  0
    9.2710   17.8870   10.4770 C   0  0  0  0  0
    9.7740   18.9100    9.4680 C   0  0  0  0  0
    7.9520   17.2910   10.0150 C   0  0  0  0  0
   11.4510   14.1620   12.6430 N   0  0  0  0  0
   12.3800   13.0420   12.7110 C   0  0  0  0  0
   12.4680   12.6060   14.1610 C   0  0  0  0  0
   12.0350   13.3310   15.0600 O   0  0  0  0  0
   13.7660   13.4450   12.1830 C   0  0  0  0  0
   14.3670   14.6270   12.8790 C   0  0  0  0  0
   14.7520   14.5980   14.2030 N   0  0  0  0  0
   14.6530   15.8730   12.4310 C   0  0  0  0  0
   15.2510   15.7750   14.5400 C   0  0  0  0  0
   15.2030   16.5660   13.4830 N   0  0  0  0  0
   13.0130   11.4190   14.3920 N   0  0  0  0  0
   13.1400   10.9100   15.7500 C   0  0  0  0  0
   14.2250   11.6670   16.5190 C   0  0  0  0  0
   14.8560   12.5830   15.9900 O   0  0  0  0  0
   13.4450    9.4050   15.7250 C   0  0  0  0  0
   14.6210    9.1050   14.9790 O   0  0  0  0  0
   14.4500   11.2900   17.7840 N   0  0  0  0  0
   15.0730   12.2070   18.7360 C   0  0  0  0  0
   14.9560   11.6920   20.1920 C   0  0  0  0  0
   15.4920   12.6800   21.2010 C   0  0  0  0  0
   13.5360   11.5490   20.3770 O   0  0  0  0  0
   12.7950   10.1570   20.6300 P   0  0  0  0  0
   13.5040    9.3080   21.6440 O   0  0  0  0  0
   12.7690    9.5490   19.2330 O   0  0  0  0  0
   11.4300   10.6230   21.0710 O   0  0  0  0  0
   16.5600   12.3540   18.4130 C   0  0  0  0  0
   17.2490   11.3890   18.1570 O   0  0  0  0  0
   17.0480   13.5920   18.4400 N   0  0  0  0  0
   18.4630   13.9520   18.4930 C   0  0  0  0  0
   18.9390   14.1740   19.9240 C   0  0  0  0  0
   18.1640   14.5790   20.7940 O   0  0  0  0  0
   18.7160   15.2240   17.6860 C   0  0  0  0  0
   18.3090   15.1500   16.2350 C   0  0  0  0  0
   18.7900   16.6700   15.3960 S   0  0  0  0  0
   19.7520   16.0210   14.0310 C   0  0  0  0  0
   20.2200   13.9190   20.1800 N   0  0  0  0  0
    4.9030   18.0580   17.5050 C   0  0  0  0  0
    5.2010   19.4820   17.0520 C   0  0  0  0  0
    4.8980   20.4540   18.1930 C   0  0  0  0  0
    5.7640   20.1120   19.3980 C   0  0  0  0  0
    5.4660   18.6880   19.8510 C   0  0  0  0  0
    3.9950   18.5730   20.2370 C   0  0  0  0  0
    3.1240   18.9180   19.0320 C   0  0  0  0  0
    3.4290   17.9460   17.8890 C   0  0  0  0  0
    5.7700   17.7170   18.7120 C   0  0  0  0  0
    3.4260   20.3440   18.5790 C   0  0  0  0  0
    5.1127   16.0831   16.5176 H   0  0  0  0  0
    4.4008   17.4215   15.4406 H   0  0  0  0  0
    9.1525   17.4329   15.0053 H   0  0  0  0  0
   10.0078   16.2395   16.9886 H   0  0  0  0  0
   10.5532   15.2472   15.7334 H   0  0  0  0  0
    9.0132   14.0269   17.4841 H   0  0  0  0  0
    8.5697   13.7660   15.8610 H   0  0  0  0  0
    6.4979   14.7100   16.7449 H   0  0  0  0  0
    7.3055   15.7370   17.8344 H   0  0  0  0  0
   10.4348   16.8666   13.2797 H   0  0  0  0  0
    8.8747   15.2954   11.3075 H   0  0  0  0  0
   10.4505   16.3135    9.6623 H   0  0  0  0  0
   11.2057   17.2158   11.0575 H   0  0  0  0  0
    9.1194   18.3888   11.4327 H   0  0  0  0  0
   10.7134   19.3353    9.8212 H   0  0  0  0  0
    9.9334   18.4220    8.5064 H   0  0  0  0  0
    9.0341   19.7026    9.3564 H   0  0  0  0  0
    8.0978   16.7852    9.0606 H   0  0  0  0  0
    7.5986   16.5749   10.7569 H   0  0  0  0  0
    7.2166   18.0869    9.8972 H   0  0  0  0  0
   11.2768   14.7143   13.4827 H   0  0  0  0  0
   12.0248   12.2219   12.0870 H   0  0  0  0  0
   13.6447   13.7163   11.1343 H   0  0  0  0  0
   14.4328   12.5992   12.3507 H   0  0  0  0  0
   14.4795   16.2546   11.4248 H   0  0  0  0  0
   15.6364   16.0465   15.5228 H   0  0  0  0  0
   13.3469   10.8565   13.6094 H   0  0  0  0  0
   12.1926   11.0666   16.2657 H   0  0  0  0  0
   12.6049    8.8971   15.2513 H   0  0  0  0  0
   13.6018    9.0743   16.7517 H   0  0  0  0  0
   14.7726    8.1571   14.9902 H   0  0  0  0  0
   14.1837   10.3529   18.0863 H   0  0  0  0  0
   14.5530   13.1612   18.6506 H   0  0  0  0  0
   15.5297   10.7771   20.3400 H   0  0  0  0  0
   16.5453   12.8713   20.9961 H   0  0  0  0  0
   14.9313   13.6119   21.1283 H   0  0  0  0  0
   15.3848   12.2672   22.2041 H   0  0  0  0  0
   12.3031   10.1398   18.6367 H   0  0  0  0  0
   11.0363   11.1579   20.3778 H   0  0  0  0  0
   16.3742   14.3575   18.4221 H   0  0  0  0  0
   19.0216   13.1186   18.0670 H   0  0  0  0  0
   19.7918   15.3985   17.7026 H   0  0  0  0  0
   18.1147   16.0107   18.1418 H   0  0  0  0  0
   17.2283   15.0247   16.1673 H   0  0  0  0  0
   18.8046   14.3022   15.7620 H   0  0  0  0  0
   20.5970   15.4536   14.4211 H   0  0  0  0  0
   19.1244   15.3690   13.4235 H   0  0  0  0  0
   20.1178   16.8469   13.4209 H   0  0  0  0  0
   20.5895   14.0575   21.1206 H   0  0  0  0  0
   20.8322   13.5851   19.4356 H   0  0  0  0  0
    4.5789   19.7271   16.1912 H   0  0  0  0  0
    6.2522   19.5628   16.7755 H   0  0  0  0  0
    5.1141   21.4716   17.8676 H   0  0  0  0  0
    5.5452   20.8047   20.2106 H   0  0  0  0  0
    6.8158   20.1931   19.1239 H   0  0  0  0  0
    6.0876   18.4444   20.7126 H   0  0  0  0  0
    3.7782   19.2640   21.0516 H   0  0  0  0  0
    3.7825   17.5535   20.5588 H   0  0  0  0  0
    2.0725   18.8383   19.3078 H   0  0  0  0  0
    3.2139   16.9272   18.2113 H   0  0  0  0  0
    2.8092   18.1929   17.0270 H   0  0  0  0  0
    6.8217   17.7983   18.4374 H   0  0  0  0  0
    5.5551   16.6989   19.0366 H   0  0  0  0  0
    2.8051   20.5908   17.7178 H   0  0  0  0  0
    3.2109   21.0369   19.3925 H   0  0  0  0  0
  1  2  2  0  0  0
  1  3  1  0  0  0
  1  4  1  0  0  0
  3 55  1  0  0  0
  4  5  1  0  0  0
  4 10  1  0  0  0
  5  6  1  0  0  0
  5  8  1  0  0  0
  6  7  2  0  0  0
  6 11  1  0  0  0
  8  9  1  0  0  0
  9 10  1  0  0  0
 11 12  1  0  0  0
 12 13  1  0  0  0
 12 15  1  0  0  0
 13 14  2  0  0  0
 13 19  1  0  0  0
 15 16  1  0  0  0
 16 17  1  0  0  0
 16 18  1  0  0  0
 19 20  1  0  0  0
 20 21  1  0  0  0
 20 23  1  0  0  0
 21 22  2  0  0  0
 21 29  1  0  0  0
 23 24  1  0  0  0
 24 25  4  0  0  0
 24 26  4  0  0  0
 25 27  4  0  0  0
 26 28  4  0  0  0
 27 28  4  0  0  0
 29 30  1  0  0  0
 30 31  1  0  0  0
 30 33  1  0  0  0
 31 32  2  0  0  0
 31 35  1  0  0  0
 33 34  1  0  0  0
 35 36  1  0  0  0
 36 37  1  0  0  0
 36 44  1  0  0  0
 37 38  1  0  0  0
 37 39  1  0  0  0
 39 40  1  0  0  0
 40 41  2  0  0  0
 40 42  1  0  0  0
 40 43  1  0  0  0
 44 45  2  0  0  0
 44 46  1  0  0  0
 46 47  1  0  0  0
 47 48  1  0  0  0
 47 50  1  0  0  0
 48 49  2  0  0  0
 48 54  1  0  0  0
 50 51  1  0  0  0
 51 52  1  0  0  0
 52 53  1  0  0  0
 55 56  1  0  0  0
 55 62  1  0  0  0
 55 63  1  0  0  0
 56 57  1  0  0  0
 57 58  1  0  0  0
 57 64  1  0  0  0
 58 59  1  0  0  0
 59 60  1  0  0  0
 59 63  1  0  0  0
 60 61  1  0  0  0
 61 62  1  0  0  0
 61 64  1  0  0  0
  3 65  1  0  0  0
  3 66  1  0  0  0
  5 67  1  0  0  0
  8 68  1  0  0  0
  8 69  1  0  0  0
  9 70  1  0  0  0
  9 71  1  0  0  0
 10 72  1  0  0  0
 10 73  1  0  0  0
 11 74  1  0  0  0
 12 75  1  0  0  0
 15 76  1  0  0  0
 15 77  1  0  0  0
 16 78  1  0  0  0
 17 79  1  0  0  0
 17 80  1  0  0  0
 17 81  1  0  0  0
 18 82  1  0  0  0
 18 83  1  0  0  0
 18 84  1  0  0  0
 19 85  1  0  0  0
 20 86  1  0  0  0
 23 87  1  0  0  0
 23 88  1  0  0  0
 26 89  1  0  0  0
 27 90  1  0  0  0
 29 91  1  0  0  0
 30 92  1  0  0  0
 33 93  1  0  0  0
 33 94  1  0  0  0
 34 95  1  0  0  0
 35 96  1  0  0  0
 36 97  1  0  0  0
 37 98  1  0  0  0
 38 99  1  0  0  0
 38100  1  0  0  0
 38101  1  0  0  0
 42102  1  0  0  0
 43103  1  0  0  0
 46104  1  0  0  0
 47105  1  0  0  0
 50106  1  0  0  0
 50107  1  0  0  0
 51108  1  0  0  0
 51109  1  0  0  0
 53110  1  0  0  0
 53111  1  0  0  0
 53112  1  0  0  0
 54113  1  0  0  0
 54114  1  0  0  0
 56115  1  0  0  0
 56116  1  0  0  0
 57117  1  0  0  0
 58118  1  0  0  0
 58119  1  0  0  0
 59120  1  0  0  0
 60121  1  0  0  0
 60122  1  0  0  0
 61123  1  0  0  0
 62124  1  0  0  0
 62125  1  0  0  0
 63126  1  0  0  0
 63127  1  0  0  0
 64128  1  0  0  0
 64129  1  0  0  0
M  END
$$$$
