4loh_ligand
  -I-interpret- 

 68 74  0  0  0  0  0  0  0  0999 V2000
  -55.8220    3.1810   66.5030 C   0  0  0  0  0
  -56.6460    6.6750   66.5980 N   0  0  0  0  0
  -56.5020    5.3850   66.9380 C   0  0  0  0  0
  -55.9770    4.5060   66.1300 N   0  0  0  0  0
  -56.2230    2.7770   67.7330 N   0  0  0  0  0
  -56.7510    3.7350   68.5170 C   0  0  0  0  0
  -56.8660    5.0020   68.1480 C   0  0  0  0  0
  -57.4210    5.6540   69.1520 N   0  0  0  0  0
  -57.6400    4.8140   70.1560 C   0  0  0  0  0
  -57.2220    3.6250   69.7310 N   0  0  0  0  0
  -57.1100    2.3280   70.1930 C   0  0  0  0  0
  -55.8170    2.1110   70.5680 C   0  0  0  0  0
  -55.5150    0.5870   70.5310 O   0  0  0  0  0
  -55.9180    2.7070   71.9900 C   0  0  0  0  0
  -57.1990    2.1300   72.5380 C   0  0  0  0  0
  -57.8180    2.8620   73.7640 C   0  0  0  0  0
  -58.0520    4.1860   73.3590 O   0  0  0  0  0
  -58.1220    5.3240   74.4520 P   0  0  0  0  0
  -58.2850    6.6080   73.7510 O   0  0  0  0  0
  -56.8590    5.5490   75.3660 O   0  0  0  0  0
  -55.5740    5.4880   74.8530 C   0  0  0  0  0
  -54.9320    4.4450   75.7340 C   0  0  0  0  0
  -55.4310    4.3240   77.2020 O   0  0  0  0  0
  -53.5080    4.8580   75.6540 C   0  0  0  0  0
  -52.8470    3.9320   74.6380 C   0  0  0  0  0
  -53.3560    4.2090   73.2980 O   0  0  0  0  0
  -53.3850    2.9870   72.3280 P   0  0  0  0  0
  -54.8040    2.1850   72.6620 O   0  0  0  0  0
  -52.3000    2.0280   72.8050 O   0  0  0  0  0
  -53.2810    3.5950   70.9640 O   0  0  0  0  0
  -53.4480    6.2690   75.1930 O   0  0  0  0  0
  -54.7440    6.7950   75.0090 C   0  0  0  0  0
  -54.5310    7.4790   73.7720 N   0  0  0  0  0
  -53.9920    7.0880   72.5960 C   0  0  0  0  0
  -54.0600    8.1100   71.7500 N   0  0  0  0  0
  -54.8800    8.7130   73.6430 C   0  0  0  0  0
  -54.6190    9.1170   72.3820 C   0  0  0  0  0
  -54.8910   10.3590   72.0140 C   0  0  0  0  0
  -55.4690   11.1450   72.9530 N   0  0  0  0  0
  -55.7330   10.6970   74.2640 C   0  0  0  0  0
  -56.2910   11.3970   75.2410 N   0  0  0  0  0
  -55.4380    9.4700   74.6030 N   0  0  0  0  0
  -54.6530   10.8180   70.8840 O   0  0  0  0  0
  -59.2160    5.0850   75.5120 O   0  0  0  0  0
  -57.9600    2.2550   71.4110 O   0  0  0  0  0
  -55.3791    2.4659   65.8098 H   0  0  0  0  0
  -56.3400    6.9977   65.6800 H   0  0  0  0  0
  -57.0614    7.3329   67.2575 H   0  0  0  0  0
  -58.0730    5.0498   71.1281 H   0  0  0  0  0
  -57.4043    1.6004   69.4366 H   0  0  0  0  0
  -55.0175    2.5363   69.9614 H   0  0  0  0  0
  -54.6045    0.4358   70.7952 H   0  0  0  0  0
  -55.9281    3.7944   72.0639 H   0  0  0  0  0
  -57.0875    1.1319   72.9616 H   0  0  0  0  0
  -57.1446    2.8283   74.6205 H   0  0  0  0  0
  -58.7433    2.3806   74.0806 H   0  0  0  0  0
  -55.6056    5.2922   73.7812 H   0  0  0  0  0
  -55.1718    3.4393   75.3888 H   0  0  0  0  0
  -54.9431    3.6280   77.6483 H   0  0  0  0  0
  -53.0015    4.7906   76.6168 H   0  0  0  0  0
  -53.0719    2.8977   74.8985 H   0  0  0  0  0
  -51.7698    4.0977   74.6519 H   0  0  0  0  0
  -52.5086    1.7263   73.6922 H   0  0  0  0  0
  -55.2160    7.4437   75.7469 H   0  0  0  0  0
  -53.5741    6.1049   72.3793 H   0  0  0  0  0
  -56.5761   12.3627   75.0780 H   0  0  0  0  0
  -55.6202    9.1087   75.5393 H   0  0  0  0  0
  -59.0664    4.2385   75.9394 H   0  0  0  0  0
  4  1  4  0  0  0
  1  5  4  0  0  0
  3  2  1  0  0  0
  3  4  4  0  0  0
  3  7  4  0  0  0
  5  6  4  0  0  0
  6  7  4  0  0  0
  6 10  4  0  0  0
  7  8  4  0  0  0
  8  9  4  0  0  0
  9 10  4  0  0  0
 10 11  1  0  0  0
 11 12  1  0  0  0
 11 45  1  0  0  0
 12 13  1  0  0  0
 12 14  1  0  0  0
 14 15  1  0  0  0
 14 28  1  0  0  0
 15 16  1  0  0  0
 15 45  1  0  0  0
 16 17  1  0  0  0
 17 18  1  0  0  0
 18 19  2  0  0  0
 18 20  1  0  0  0
 18 44  1  0  0  0
 20 21  1  0  0  0
 21 22  1  0  0  0
 21 32  1  0  0  0
 22 23  1  0  0  0
 22 24  1  0  0  0
 24 25  1  0  0  0
 24 31  1  0  0  0
 25 26  1  0  0  0
 26 27  1  0  0  0
 27 28  1  0  0  0
 27 29  1  0  0  0
 27 30  2  0  0  0
 31 32  1  0  0  0
 32 33  1  0  0  0
 33 34  4  0  0  0
 33 36  4  0  0  0
 34 35  4  0  0  0
 35 37  4  0  0  0
 36 37  4  0  0  0
 36 42  1  0  0  0
 37 38  1  0  0  0
 38 39  1  0  0  0
 38 43  2  0  0  0
 39 40  4  0  0  0
 40 41  2  0  0  0
 40 42  1  0  0  0
  1 46  1  0  0  0
  2 47  1  0  0  0
  2 48  1  0  0  0
  9 49  1  0  0  0
 11 50  1  0  0  0
 12 51  1  0  0  0
 13 52  1  0  0  0
 14 53  1  0  0  0
 15 54  1  0  0  0
 16 55  1  0  0  0
 16 56  1  0  0  0
 21 57  1  0  0  0
 22 58  1  0  0  0
 23 59  1  0  0  0
 24 60  1  0  0  0
 25 61  1  0  0  0
 25 62  1  0  0  0
 29 63  1  0  0  0
 32 64  1  0  0  0
 34 65  1  0  0  0
 41 66  1  0  0  0
 42 67  1  0  0  0
 44 68  1  0  0  0
M  END
$$$$
