4muv_ligand
  -I-interpret- 

 34 37  0  0  0  0  0  0  0  0999 V2000
   12.8990   -0.8020   88.9850 P   0  0  0  0  0
   11.6160   -0.1600   88.4990 O   0  0  0  0  0
   12.8330   -1.5160   90.2880 O   0  0  0  0  0
   13.9870    0.2920   89.0710 O   0  0  0  0  0
   15.2950   -0.0580   89.1370 C   0  0  0  0  0
   15.6010   -0.9850   87.9470 C   0  0  0  0  0
   16.9810   -1.4780   87.7680 O   0  0  0  0  0
   14.8090   -2.1090   88.0200 C   0  0  0  0  0
   13.3880   -1.8060   87.8550 O   0  0  0  0  0
   15.4280   -3.0090   86.8740 C   0  0  0  0  0
   14.7510   -2.7320   85.6480 O   0  0  0  0  0
   16.7810   -2.6330   86.8150 C   0  0  0  0  0
   17.7490   -3.6400   87.1330 N   0  0  0  0  0
   18.7030   -4.1700   86.2980 C   0  0  0  0  0
   19.3680   -5.1680   86.8830 N   0  0  0  0  0
   18.8220   -5.2770   88.1390 C   0  0  0  0  0
   19.1130   -6.1680   89.2280 C   0  0  0  0  0
   19.9910   -7.0650   89.2270 O   0  0  0  0  0
   18.3380   -5.9690   90.3450 N   0  0  0  0  0
   17.3170   -5.0350   90.4280 C   0  0  0  0  0
   16.6080   -4.9430   91.5680 N   0  0  0  0  0
   17.0090   -4.1670   89.4120 N   0  0  0  0  0
   17.8140   -4.3510   88.2680 C   0  0  0  0  0
   11.7741    0.2693   87.6550 H   0  0  0  0  0
   15.5001   -0.5715   90.0763 H   0  0  0  0  0
   15.9249    0.8305   89.0934 H   0  0  0  0  0
   15.4078   -0.3266   87.1001 H   0  0  0  0  0
   14.8151   -2.6053   88.9904 H   0  0  0  0  0
   15.3268   -4.0786   87.0577 H   0  0  0  0  0
   15.1223   -3.2752   84.9489 H   0  0  0  0  0
   16.9619   -2.3919   85.7675 H   0  0  0  0  0
   18.8929   -3.8188   85.2838 H   0  0  0  0  0
   16.8252   -5.5552   92.3545 H   0  0  0  0  0
   16.2747   -3.4620   89.4766 H   0  0  0  0  0
  1  2  1  0  0  0
  1  3  2  0  0  0
  1  4  1  0  0  0
  1  9  1  0  0  0
  4  5  1  0  0  0
  5  6  1  0  0  0
  6  7  1  0  0  0
  6  8  1  0  0  0
  7 12  1  0  0  0
  8  9  1  0  0  0
  8 10  1  0  0  0
 10 11  1  0  0  0
 10 12  1  0  0  0
 12 13  1  0  0  0
 13 14  4  0  0  0
 13 23  4  0  0  0
 14 15  4  0  0  0
 15 16  4  0  0  0
 16 17  1  0  0  0
 16 23  4  0  0  0
 17 18  2  0  0  0
 17 19  1  0  0  0
 19 20  4  0  0  0
 20 21  2  0  0  0
 20 22  1  0  0  0
 22 23  1  0  0  0
  2 24  1  0  0  0
  5 25  1  0  0  0
  5 26  1  0  0  0
  6 27  1  0  0  0
  8 28  1  0  0  0
 10 29  1  0  0  0
 11 30  1  0  0  0
 12 31  1  0  0  0
 14 32  1  0  0  0
 21 33  1  0  0  0
 22 34  1  0  0  0
M  END
$$$$
