4ncn_ligand
  -I-interpret- 

 47 49  0  0  0  0  0  0  0  0999 V2000
  -11.2370   12.5140   12.7100 P   0  0  0  0  0
   -9.7950   12.1610   12.5480 O   0  0  0  0  0
  -11.7100   12.2350   14.1170 O   0  0  0  0  0
  -12.0620   11.9650   11.5750 O   0  0  0  0  0
  -11.4070   14.1120   12.3560 O   0  0  0  0  0
  -10.4160   15.3100   12.8060 P   0  0  0  0  0
  -10.5870   15.7180   14.2490 O   0  0  0  0  0
   -8.9610   15.0340   12.4430 O   0  0  0  0  0
  -10.9370   16.5680   11.9870 O   0  0  0  0  0
  -10.6210   16.8840   10.4190 P   0  0  0  0  0
   -9.2570   17.4580   10.2530 O   0  0  0  0  0
  -10.9010   15.6350    9.5870 O   0  0  0  0  0
  -11.6560   18.0640   10.1200 O   0  0  0  0  0
  -13.0700   17.7930   10.0150 C   0  0  0  0  0
  -13.7150   18.9060    9.1790 C   0  0  0  0  0
  -13.6160   20.0750   10.0040 O   0  0  0  0  0
  -12.9830   19.2370    7.8820 C   0  0  0  0  0
  -13.9480   19.5770    6.9260 O   0  0  0  0  0
  -12.2410   20.4920    8.2240 C   0  0  0  0  0
  -11.8790   21.2910    7.1010 O   0  0  0  0  0
  -13.1550   21.1640    9.2550 C   0  0  0  0  0
  -12.3010   21.9610   10.1760 N   0  0  0  0  0
  -11.2230   21.5220   10.9470 C   0  0  0  0  0
  -10.7370   22.6290   11.6120 N   0  0  0  0  0
  -11.5150   23.6910   11.2990 C   0  0  0  0  0
  -11.5160   25.0300   11.6790 C   0  0  0  0  0
  -10.6460   25.4600   12.4430 O   0  0  0  0  0
  -12.4280   25.9030   11.1250 N   0  0  0  0  0
  -13.4080   25.4540   10.2530 C   0  0  0  0  0
  -14.3630   26.2610    9.7190 N   0  0  0  0  0
  -13.4290   24.1460    9.9290 N   0  0  0  0  0
  -12.4900   23.2850   10.4160 C   0  0  0  0  0
  -12.6376   12.4700   14.1941 H   0  0  0  0  0
  -12.9823   12.2060   11.7040 H   0  0  0  0  0
   -8.9056   14.7794   11.5190 H   0  0  0  0  0
  -11.7972   15.3344    9.7547 H   0  0  0  0  0
  -13.5191   17.7640   11.0077 H   0  0  0  0  0
  -13.2303   16.8266    9.5369 H   0  0  0  0  0
  -14.7194   18.5883    8.8992 H   0  0  0  0  0
  -12.3527   18.4285    7.5116 H   0  0  0  0  0
  -13.5140   19.7908    6.0968 H   0  0  0  0  0
  -11.2482   20.3012    8.6316 H   0  0  0  0  0
  -11.4098   22.0721    7.4033 H   0  0  0  0  0
  -13.9291   21.7904    8.8117 H   0  0  0  0  0
  -10.8400   20.5035   11.0111 H   0  0  0  0  0
  -14.3829   27.2530    9.9553 H   0  0  0  0  0
  -14.1590   23.7942    9.3095 H   0  0  0  0  0
  1  2  2  0  0  0
  1  3  1  0  0  0
  1  4  1  0  0  0
  1  5  1  0  0  0
  5  6  1  0  0  0
  6  7  2  0  0  0
  6  8  1  0  0  0
  6  9  1  0  0  0
  9 10  1  0  0  0
 10 11  2  0  0  0
 10 12  1  0  0  0
 10 13  1  0  0  0
 13 14  1  0  0  0
 14 15  1  0  0  0
 15 16  1  0  0  0
 15 17  1  0  0  0
 16 21  1  0  0  0
 17 18  1  0  0  0
 17 19  1  0  0  0
 19 20  1  0  0  0
 19 21  1  0  0  0
 21 22  1  0  0  0
 22 23  4  0  0  0
 22 32  4  0  0  0
 23 24  4  0  0  0
 24 25  4  0  0  0
 25 26  1  0  0  0
 25 32  4  0  0  0
 26 27  2  0  0  0
 26 28  1  0  0  0
 28 29  4  0  0  0
 29 30  2  0  0  0
 29 31  1  0  0  0
 31 32  1  0  0  0
  3 33  1  0  0  0
  4 34  1  0  0  0
  8 35  1  0  0  0
 12 36  1  0  0  0
 14 37  1  0  0  0
 14 38  1  0  0  0
 15 39  1  0  0  0
 17 40  1  0  0  0
 18 41  1  0  0  0
 19 42  1  0  0  0
 20 43  1  0  0  0
 21 44  1  0  0  0
 23 45  1  0  0  0
 30 46  1  0  0  0
 31 47  1  0  0  0
M  END
$$$$
