4pde_ligand
  -I-interpret- 

 42 44  0  0  0  0  0  0  0  0999 V2000
  -26.7420   43.3840    7.8150 P   0  0  0  0  0
  -27.2190   42.0930    7.1800 O   0  0  0  0  0
  -26.5000   43.2070    9.2940 O   0  0  0  0  0
  -27.8130   44.4330    7.6340 O   0  0  0  0  0
  -25.3700   43.8810    7.1240 O   0  0  0  0  0
  -25.3800   44.1000    5.5350 P   0  0  0  0  0
  -24.0030   43.9410    4.9380 O   0  0  0  0  0
  -26.3890   43.1750    4.8940 O   0  0  0  0  0
  -25.8770   45.6150    5.3960 O   0  0  0  0  0
  -26.7930   45.8990    4.3550 C   0  0  0  0  0
  -27.7010   47.0380    4.7600 C   0  0  0  0  0
  -27.7400   47.9230    3.6500 O   0  0  0  0  0
  -29.1130   46.5410    5.0080 C   0  0  0  0  0
  -29.5240   46.9170    6.3270 O   0  0  0  0  0
  -29.9860   47.2190    3.9700 C   0  0  0  0  0
  -30.8810   48.1530    4.5800 O   0  0  0  0  0
  -29.0380   47.9820    3.0650 C   0  0  0  0  0
  -28.9840   47.3370    1.7290 N   0  0  0  0  0
  -28.9130   46.0090    1.4920 C   0  0  0  0  0
  -28.8730   45.7430    0.1640 N   0  0  0  0  0
  -28.9080   46.9290   -0.4690 C   0  0  0  0  0
  -28.8850   47.3730   -1.8740 C   0  0  0  0  0
  -28.8240   46.5510   -2.8130 O   0  0  0  0  0
  -28.9350   48.6920   -2.0960 N   0  0  0  0  0
  -28.9980   49.6130   -1.1170 C   0  0  0  0  0
  -29.0400   50.9180   -1.4740 N   0  0  0  0  0
  -29.0220   49.2840    0.1970 N   0  0  0  0  0
  -28.9780   47.9800    0.5640 C   0  0  0  0  0
  -27.3647   42.2340    6.2417 H   0  0  0  0  0
  -27.9806   44.5593    6.6972 H   0  0  0  0  0
  -27.2479   43.3083    5.3017 H   0  0  0  0  0
  -27.3963   45.0130    4.1571 H   0  0  0  0  0
  -26.2405   46.1825    3.4592 H   0  0  0  0  0
  -27.3332   47.5090    5.6716 H   0  0  0  0  0
  -29.1839   45.4560    4.9314 H   0  0  0  0  0
  -30.4174   46.6027    6.4844 H   0  0  0  0  0
  -30.5842   46.4814    3.4350 H   0  0  0  0  0
  -31.4205   48.5669    3.9023 H   0  0  0  0  0
  -29.3769   49.0118    2.9521 H   0  0  0  0  0
  -28.8907   45.2471    2.2712 H   0  0  0  0  0
  -29.0236   51.1777   -2.4602 H   0  0  0  0  0
  -29.0730   50.0145    0.9071 H   0  0  0  0  0
  1  2  1  0  0  0
  1  3  2  0  0  0
  1  4  1  0  0  0
  1  5  1  0  0  0
  5  6  1  0  0  0
  6  7  2  0  0  0
  6  8  1  0  0  0
  6  9  1  0  0  0
  9 10  1  0  0  0
 10 11  1  0  0  0
 11 12  1  0  0  0
 11 13  1  0  0  0
 12 17  1  0  0  0
 13 14  1  0  0  0
 13 15  1  0  0  0
 15 16  1  0  0  0
 15 17  1  0  0  0
 17 18  1  0  0  0
 18 19  4  0  0  0
 18 28  4  0  0  0
 19 20  4  0  0  0
 20 21  4  0  0  0
 21 22  1  0  0  0
 21 28  4  0  0  0
 22 23  2  0  0  0
 22 24  1  0  0  0
 24 25  4  0  0  0
 25 26  2  0  0  0
 25 27  1  0  0  0
 27 28  1  0  0  0
  2 29  1  0  0  0
  4 30  1  0  0  0
  8 31  1  0  0  0
 10 32  1  0  0  0
 10 33  1  0  0  0
 11 34  1  0  0  0
 13 35  1  0  0  0
 14 36  1  0  0  0
 15 37  1  0  0  0
 16 38  1  0  0  0
 17 39  1  0  0  0
 19 40  1  0  0  0
 26 41  1  0  0  0
 27 42  1  0  0  0
M  END
$$$$
