4q46_ligand
  -I-interpret- 

 42 44  0  0  0  0  0  0  0  0999 V2000
   28.2360    2.7640    4.9840 P   0  0  0  0  0
   28.6530    3.8050    5.9720 O   0  0  0  0  0
   29.0950    1.5350    5.1540 O   0  0  0  0  0
   28.2870    3.3730    3.6430 O   0  0  0  0  0
   26.8440    2.1280    5.4530 O   0  0  0  0  0
   25.4440    2.7230    5.7600 P   0  0  0  0  0
   25.4010    4.0650    6.4690 O   0  0  0  0  0
   24.6610    1.6190    6.3590 O   0  0  0  0  0
   24.7150    2.9790    4.3680 O   0  0  0  0  0
   24.6260    1.9550    3.3680 C   0  0  0  0  0
   23.5790    2.4410    2.3320 C   0  0  0  0  0
   23.6930    1.5370    1.2180 O   0  0  0  0  0
   22.1560    2.2850    2.8170 C   0  0  0  0  0
   21.3940    3.3940    2.2310 O   0  0  0  0  0
   21.7690    0.8650    2.2780 C   0  0  0  0  0
   20.3700    0.7420    2.0600 O   0  0  0  0  0
   22.4290    0.9710    0.8820 C   0  0  0  0  0
   22.7360   -0.3490    0.2970 N   0  0  0  0  0
   23.1130   -1.5530    0.9050 C   0  0  0  0  0
   23.3370   -2.4650   -0.1060 N   0  0  0  0  0
   23.1500   -1.8360   -1.3120 C   0  0  0  0  0
   23.2800   -2.2450   -2.7290 C   0  0  0  0  0
   23.6180   -3.4370   -3.0000 O   0  0  0  0  0
   23.0420   -1.3060   -3.6680 N   0  0  0  0  0
   22.6680   -0.0170   -3.3780 C   0  0  0  0  0
   22.4220    0.8780   -4.3640 N   0  0  0  0  0
   22.5200    0.4250   -2.0760 N   0  0  0  0  0
   22.7700   -0.4690   -1.0450 C   0  0  0  0  0
   28.6284    3.4330    6.8567 H   0  0  0  0  0
   29.0039    1.2038    6.0504 H   0  0  0  0  0
   25.9431    4.6962    5.9901 H   0  0  0  0  0
   24.3266    1.0041    3.8087 H   0  0  0  0  0
   25.5935    1.7860    2.8952 H   0  0  0  0  0
   23.7675    3.4926    2.1158 H   0  0  0  0  0
   21.9789    2.3326    3.8915 H   0  0  0  0  0
   20.4782    3.3359    2.5132 H   0  0  0  0  0
   22.0564    0.0445    2.9354 H   0  0  0  0  0
   20.1747   -0.1386    1.7314 H   0  0  0  0  0
   21.7939    1.5083    0.1777 H   0  0  0  0  0
   23.2110   -1.7353    1.9752 H   0  0  0  0  0
   22.5136    0.5987   -5.3407 H   0  0  0  0  0
   22.2343    1.3841   -1.8787 H   0  0  0  0  0
  1  2  1  0  0  0
  1  3  1  0  0  0
  1  4  2  0  0  0
  1  5  1  0  0  0
  5  6  1  0  0  0
  6  7  1  0  0  0
  6  8  2  0  0  0
  6  9  1  0  0  0
  9 10  1  0  0  0
 10 11  1  0  0  0
 11 12  1  0  0  0
 11 13  1  0  0  0
 12 17  1  0  0  0
 13 14  1  0  0  0
 13 15  1  0  0  0
 15 16  1  0  0  0
 15 17  1  0  0  0
 17 18  1  0  0  0
 18 19  4  0  0  0
 18 28  4  0  0  0
 19 20  4  0  0  0
 20 21  4  0  0  0
 21 22  1  0  0  0
 21 28  4  0  0  0
 22 23  2  0  0  0
 22 24  1  0  0  0
 24 25  4  0  0  0
 25 26  2  0  0  0
 25 27  1  0  0  0
 27 28  1  0  0  0
  2 29  1  0  0  0
  3 30  1  0  0  0
  7 31  1  0  0  0
 10 32  1  0  0  0
 10 33  1  0  0  0
 11 34  1  0  0  0
 13 35  1  0  0  0
 14 36  1  0  0  0
 15 37  1  0  0  0
 16 38  1  0  0  0
 17 39  1  0  0  0
 19 40  1  0  0  0
 26 41  1  0  0  0
 27 42  1  0  0  0
M  END
$$$$
