4qrh_ligand
  -I-interpret- 

 57 59  0  0  0  0  0  0  0  0999 V2000
   95.5810  -22.8190  105.1930 P   0  0  0  0  0
   94.1430  -22.7800  104.7690 O   0  0  0  0  0
   95.8020  -23.6700  106.4360 O   0  0  0  0  0
   96.1390  -21.4290  105.3920 O   0  0  0  0  0
   94.5540  -28.8150  107.1540 P   0  0  0  0  0
   94.6720  -30.3050  106.9530 O   0  0  0  0  0
   94.3470  -28.5380  108.6290 O   0  0  0  0  0
   95.8220  -28.1440  106.6840 O   0  0  0  0  0
   93.2980  -27.7280  104.8660 P   0  0  0  0  0
   94.3050  -26.6020  104.8160 O   0  0  0  0  0
   91.9090  -27.2710  104.4850 O   0  0  0  0  0
   93.2710  -28.2820  106.3560 O   0  0  0  0  0
   93.7560  -28.9290  103.9310 O   0  0  0  0  0
   93.9370  -29.0610  102.3510 P   0  0  0  0  0
   92.6690  -28.8280  101.5830 O   0  0  0  0  0
   94.4080  -30.4820  102.2500 O   0  0  0  0  0
   95.0530  -28.1130  101.7330 O   0  0  0  0  0
   96.3220  -28.1470  102.3500 C   0  0  0  0  0
   97.2160  -27.1040  101.8070 C   0  0  0  0  0
   97.4640  -27.4160  100.3660 O   0  0  0  0  0
   96.6720  -25.7280  101.8780 C   0  0  0  0  0
   97.7070  -24.9220  102.5000 O   0  0  0  0  0
   96.4260  -25.3050  100.4980 C   0  0  0  0  0
   96.6250  -23.8760  100.2630 O   0  0  0  0  0
   97.3980  -26.0810   99.7030 C   0  0  0  0  0
   97.0400  -26.2450   98.3570 N   0  0  0  0  0
   95.8310  -26.5010   97.8410 C   0  0  0  0  0
   95.9020  -26.5930   96.5140 N   0  0  0  0  0
   97.1660  -26.4010   96.1290 C   0  0  0  0  0
   97.8560  -26.3740   94.9090 C   0  0  0  0  0
   97.3170  -26.5260   93.8230 O   0  0  0  0  0
   99.1690  -26.1590   94.9180 N   0  0  0  0  0
   99.8520  -25.9620   96.0470 C   0  0  0  0  0
  101.2310  -25.7150   95.9840 N   0  0  0  0  0
   99.2330  -25.9700   97.2480 N   0  0  0  0  0
   97.9010  -26.1930   97.3070 C   0  0  0  0  0
   97.5660  -24.5680  104.0550 P   0  0  0  0  0
   98.8540  -23.9540  104.4640 O   0  0  0  0  0
   97.1680  -25.8020  104.8220 O   0  0  0  0  0
   96.3860  -23.5000  103.9980 O   0  0  0  0  0
   96.7341  -23.6629  106.6657 H   0  0  0  0  0
   97.0582  -21.4900  105.6621 H   0  0  0  0  0
   94.2706  -27.5912  108.7680 H   0  0  0  0  0
   95.7471  -27.1955  106.8119 H   0  0  0  0  0
   95.1699  -26.9364  105.0644 H   0  0  0  0  0
   92.4048  -27.9096  101.6748 H   0  0  0  0  0
   96.7725  -29.1212  102.1597 H   0  0  0  0  0
   96.1918  -27.9687  103.4174 H   0  0  0  0  0
   98.1174  -27.1198  102.4197 H   0  0  0  0  0
   95.7469  -25.6420  102.4480 H   0  0  0  0  0
   95.3832  -25.4815  100.2346 H   0  0  0  0  0
   96.4459  -23.6765   99.3412 H   0  0  0  0  0
   98.3492  -25.5493   99.6777 H   0  0  0  0  0
   94.9178  -26.6176   98.4245 H   0  0  0  0  0
  101.7034  -25.6872   95.0804 H   0  0  0  0  0
   99.7661  -25.8092   98.1026 H   0  0  0  0  0
   96.3277  -26.1265  104.4901 H   0  0  0  0  0
  1  2  2  0  0  0
  1  3  1  0  0  0
  1  4  1  0  0  0
 40  1  1  0  0  0
  5  6  2  0  0  0
  5  7  1  0  0  0
  5  8  1  0  0  0
 12  5  1  0  0  0
  9 10  1  0  0  0
  9 11  2  0  0  0
  9 12  1  0  0  0
 13  9  1  0  0  0
 14 13  1  0  0  0
 14 15  1  0  0  0
 14 16  2  0  0  0
 17 14  1  0  0  0
 18 17  1  0  0  0
 19 18  1  0  0  0
 19 20  1  0  0  0
 21 19  1  0  0  0
 25 20  1  0  0  0
 22 21  1  0  0  0
 21 23  1  0  0  0
 37 22  1  0  0  0
 23 24  1  0  0  0
 23 25  1  0  0  0
 25 26  1  0  0  0
 26 27  4  0  0  0
 26 36  4  0  0  0
 27 28  4  0  0  0
 29 28  4  0  0  0
 29 30  1  0  0  0
 36 29  4  0  0  0
 30 31  2  0  0  0
 30 32  1  0  0  0
 33 32  4  0  0  0
 33 34  2  0  0  0
 35 33  1  0  0  0
 36 35  1  0  0  0
 37 38  2  0  0  0
 37 39  1  0  0  0
 37 40  1  0  0  0
  3 41  1  0  0  0
  4 42  1  0  0  0
  7 43  1  0  0  0
  8 44  1  0  0  0
 10 45  1  0  0  0
 15 46  1  0  0  0
 18 47  1  0  0  0
 18 48  1  0  0  0
 19 49  1  0  0  0
 21 50  1  0  0  0
 23 51  1  0  0  0
 24 52  1  0  0  0
 25 53  1  0  0  0
 27 54  1  0  0  0
 34 55  1  0  0  0
 35 56  1  0  0  0
 39 57  1  0  0  0
M  END
$$$$
