4qxs_ligand
  -I-interpret- 

 56 58  0  0  0  0  0  0  0  0999 V2000
    7.9300   72.6130   25.5350 O   0  0  0  0  0
    7.6630   73.7670   26.5890 P   0  0  0  0  0
    8.8890   74.5930   26.8600 O   0  0  0  0  0
    6.3550   74.4170   26.2690 O   0  0  0  0  0
    7.3540   72.8160   28.1670 C   0  0  0  0  0
    8.8980   71.9870   28.7380 P   0  0  0  0  0
    8.3630   71.1070   30.0240 O   0  0  0  0  0
    9.2570   71.1840   27.6330 O   0  0  0  0  0
    9.7410   72.9620   29.3860 O   0  0  0  0  0
    6.2520   71.7900   27.9580 C   0  0  0  0  0
    5.2230   71.8720   29.1270 C   0  0  0  0  0
    4.9130   70.8900   29.9870 C   0  0  0  0  0
    5.4890   69.4620   30.1390 C   0  0  0  0  0
    6.0110   69.2840   31.6050 C   0  0  0  0  0
    4.4700   68.4320   29.8670 C   0  0  0  0  0
    4.1040   68.5200   28.3790 C   0  0  0  0  0
    5.1240   67.0630   30.2220 C   0  0  0  0  0
    4.0070   71.3450   30.8530 N   0  0  0  0  0
    3.6890   72.6080   30.5430 C   0  0  0  0  0
    2.8370   73.4550   31.1430 C   0  0  0  0  0
    2.6930   74.7390   30.6710 C   0  0  0  0  0
    4.4670   72.9730   29.4910 C   0  0  0  0  0
    4.3210   74.2150   29.0070 C   0  0  0  0  0
    3.4390   75.1510   29.5600 C   0  0  0  0  0
    3.3680   76.4910   29.0910 C   0  0  0  0  0
    4.5850   77.1960   28.9000 C   0  0  0  0  0
    4.6450   78.5110   28.4980 C   0  0  0  0  0
    3.4550   79.1800   28.2630 C   0  0  0  0  0
    2.2500   78.5020   28.4440 C   0  0  0  0  0
    2.1830   77.1840   28.8950 C   0  0  0  0  0
    8.7684   72.1889   25.7320 H   0  0  0  0  0
    9.6303   74.0120   27.0456 H   0  0  0  0  0
    7.0359   73.5200   28.9359 H   0  0  0  0  0
    8.1339   71.7002   30.7432 H   0  0  0  0  0
    9.2592   73.3696   30.1094 H   0  0  0  0  0
    6.6896   70.7920   27.9331 H   0  0  0  0  0
    5.7435   71.9950   27.0160 H   0  0  0  0  0
    6.2963   69.3398   29.4169 H   0  0  0  0  0
    6.7892   70.0208   31.8042 H   0  0  0  0  0
    5.1861   69.4272   32.3029 H   0  0  0  0  0
    6.4197   68.2806   31.7245 H   0  0  0  0  0
    3.5577   68.5602   30.4495 H   0  0  0  0  0
    3.7087   69.5122   28.1615 H   0  0  0  0  0
    4.9944   68.3420   27.7760 H   0  0  0  0  0
    3.3499   67.7680   28.1465 H   0  0  0  0  0
    6.0078   66.9124   29.6020 H   0  0  0  0  0
    5.4115   67.0609   31.2734 H   0  0  0  0  0
    4.4086   66.2615   30.0380 H   0  0  0  0  0
    2.2585   73.1244   32.0056 H   0  0  0  0  0
    2.0042   75.4296   31.1576 H   0  0  0  0  0
    4.9167   74.5094   28.1430 H   0  0  0  0  0
    5.5213   76.6682   29.0812 H   0  0  0  0  0
    5.6038   79.0129   28.3680 H   0  0  0  0  0
    3.4605   80.2214   27.9412 H   0  0  0  0  0
    1.3196   79.0251   28.2233 H   0  0  0  0  0
    1.2211   76.7094   29.0890 H   0  0  0  0  0
  1  2  1  0  0  0
  2  3  1  0  0  0
  2  4  2  0  0  0
  2  5  1  0  0  0
  5  6  1  0  0  0
  5 10  1  0  0  0
  6  7  1  0  0  0
  6  8  2  0  0  0
  6  9  1  0  0  0
 10 11  1  0  0  0
 11 12  4  0  0  0
 11 22  4  0  0  0
 12 13  1  0  0  0
 12 18  4  0  0  0
 13 14  1  0  0  0
 13 15  1  0  0  0
 15 16  1  0  0  0
 15 17  1  0  0  0
 18 19  4  0  0  0
 19 20  4  0  0  0
 19 22  4  0  0  0
 20 21  4  0  0  0
 21 24  4  0  0  0
 22 23  4  0  0  0
 23 24  4  0  0  0
 24 25  1  0  0  0
 25 26  4  0  0  0
 25 30  4  0  0  0
 26 27  4  0  0  0
 27 28  4  0  0  0
 28 29  4  0  0  0
 29 30  4  0  0  0
  1 31  1  0  0  0
  3 32  1  0  0  0
  5 33  1  0  0  0
  7 34  1  0  0  0
  9 35  1  0  0  0
 10 36  1  0  0  0
 10 37  1  0  0  0
 13 38  1  0  0  0
 14 39  1  0  0  0
 14 40  1  0  0  0
 14 41  1  0  0  0
 15 42  1  0  0  0
 16 43  1  0  0  0
 16 44  1  0  0  0
 16 45  1  0  0  0
 17 46  1  0  0  0
 17 47  1  0  0  0
 17 48  1  0  0  0
 20 49  1  0  0  0
 21 50  1  0  0  0
 23 51  1  0  0  0
 26 52  1  0  0  0
 27 53  1  0  0  0
 28 54  1  0  0  0
 29 55  1  0  0  0
 30 56  1  0  0  0
M  END
$$$$
