4rcg_ligand
  -I-interpret- 

 42 44  0  0  0  0  0  0  0  0999 V2000
  -16.5130  -14.3450  -33.0120 P   0  0  0  0  0
  -16.9580  -13.7400  -31.7060 O   0  0  0  0  0
  -17.3870  -14.1710  -34.2370 O   0  0  0  0  0
  -16.0210  -15.7740  -32.9820 O   0  0  0  0  0
  -15.2850  -13.5240  -33.5970 O   0  0  0  0  0
  -14.1430  -12.7880  -32.7160 P   0  0  0  0  0
  -14.5830  -11.3910  -32.3410 O   0  0  0  0  0
  -13.4810  -13.6040  -31.6530 O   0  0  0  0  0
  -13.2220  -12.6450  -34.0090 O   0  0  0  0  0
  -11.9690  -13.2270  -33.8300 C   0  0  0  0  0
  -11.1420  -13.4300  -35.0880 C   0  0  0  0  0
  -11.4880  -12.5920  -36.2110 O   0  0  0  0  0
   -9.7680  -12.9670  -34.6400 C   0  0  0  0  0
   -8.7900  -13.7100  -35.3770 O   0  0  0  0  0
   -9.8790  -11.4710  -34.9620 C   0  0  0  0  0
   -8.6290  -10.8310  -35.0820 O   0  0  0  0  0
  -10.5720  -11.4780  -36.3020 C   0  0  0  0  0
  -11.2430  -10.1870  -36.5210 N   0  0  0  0  0
  -12.3070   -9.7150  -35.8300 C   0  0  0  0  0
  -12.7070   -8.5170  -36.3170 N   0  0  0  0  0
  -11.8970   -8.2320  -37.3290 C   0  0  0  0  0
  -11.7610   -7.1290  -38.2570 C   0  0  0  0  0
  -12.5200   -6.1650  -38.2100 O   0  0  0  0  0
  -10.8080   -7.1750  -39.1760 N   0  0  0  0  0
   -9.9870   -8.2280  -39.2680 C   0  0  0  0  0
   -9.0560   -8.2150  -40.2360 N   0  0  0  0  0
  -10.0490   -9.2810  -38.4440 N   0  0  0  0  0
  -10.9530   -9.3190  -37.4680 C   0  0  0  0  0
  -16.9759  -14.6076  -34.9866 H   0  0  0  0  0
  -15.7683  -16.0429  -33.8682 H   0  0  0  0  0
  -14.9913  -10.9704  -33.1013 H   0  0  0  0  0
  -12.1492  -14.2203  -33.4190 H   0  0  0  0  0
  -11.4018  -12.5434  -33.1983 H   0  0  0  0  0
  -11.2641  -14.4559  -35.4355 H   0  0  0  0  0
   -9.4681  -13.1208  -33.6034 H   0  0  0  0  0
   -7.9107  -13.4329  -35.1092 H   0  0  0  0  0
  -10.3964  -10.9270  -34.1718 H   0  0  0  0  0
   -8.7644   -9.9021  -35.2829 H   0  0  0  0  0
   -9.9025  -11.5961  -37.1540 H   0  0  0  0  0
  -12.7786  -10.2306  -34.9934 H   0  0  0  0  0
   -8.9918   -7.4195  -40.8712 H   0  0  0  0  0
   -9.3999  -10.0585  -38.5648 H   0  0  0  0  0
  1  2  2  0  0  0
  1  3  1  0  0  0
  1  4  1  0  0  0
  1  5  1  0  0  0
  5  6  1  0  0  0
  6  7  1  0  0  0
  6  8  2  0  0  0
  6  9  1  0  0  0
  9 10  1  0  0  0
 10 11  1  0  0  0
 11 12  1  0  0  0
 11 13  1  0  0  0
 12 17  1  0  0  0
 13 14  1  0  0  0
 13 15  1  0  0  0
 15 16  1  0  0  0
 15 17  1  0  0  0
 17 18  1  0  0  0
 18 19  4  0  0  0
 18 28  4  0  0  0
 19 20  4  0  0  0
 20 21  4  0  0  0
 21 22  1  0  0  0
 21 28  4  0  0  0
 22 23  2  0  0  0
 22 24  1  0  0  0
 24 25  4  0  0  0
 25 26  2  0  0  0
 25 27  1  0  0  0
 27 28  1  0  0  0
  3 29  1  0  0  0
  4 30  1  0  0  0
  7 31  1  0  0  0
 10 32  1  0  0  0
 10 33  1  0  0  0
 11 34  1  0  0  0
 13 35  1  0  0  0
 14 36  1  0  0  0
 15 37  1  0  0  0
 16 38  1  0  0  0
 17 39  1  0  0  0
 19 40  1  0  0  0
 26 41  1  0  0  0
 27 42  1  0  0  0
M  END
$$$$
