4rd6_ligand
  -I-interpret- 

 42 44  0  0  0  0  0  0  0  0999 V2000
   -6.9140   30.1520   -4.8180 P   0  0  0  0  0
   -5.5830   29.6520   -5.2790 O   0  0  0  0  0
   -7.6330   30.8910   -5.9170 O   0  0  0  0  0
   -7.7180   28.9810   -4.2950 O   0  0  0  0  0
   -6.7080   31.2250   -3.6260 O   0  0  0  0  0
   -6.8090   30.9900   -2.0410 P   0  0  0  0  0
   -8.2510   30.8930   -1.5870 O   0  0  0  0  0
   -5.9370   29.8380   -1.6190 O   0  0  0  0  0
   -6.2100   32.3930   -1.5360 O   0  0  0  0  0
   -4.8360   32.7200   -1.7930 C   0  0  0  0  0
   -4.3580   33.7570   -0.7850 C   0  0  0  0  0
   -5.1440   34.9510   -0.9170 O   0  0  0  0  0
   -4.5420   33.2540    0.6420 C   0  0  0  0  0
   -3.4130   33.6550    1.4320 O   0  0  0  0  0
   -5.8000   33.9810    1.0990 C   0  0  0  0  0
   -5.8820   34.1960    2.5120 O   0  0  0  0  0
   -5.7070   35.2900    0.3360 C   0  0  0  0  0
   -7.0490   35.8760    0.1680 N   0  0  0  0  0
   -8.1500   35.2590   -0.2980 C   0  0  0  0  0
   -9.2050   36.1030   -0.3230 N   0  0  0  0  0
   -8.7750   37.2930    0.1250 C   0  0  0  0  0
   -9.3660   38.6210    0.3700 C   0  0  0  0  0
  -10.5760   38.8420    0.1310 O   0  0  0  0  0
   -8.5560   39.5780    0.8580 N   0  0  0  0  0
   -7.2520   39.3640    1.1210 C   0  0  0  0  0
   -6.5020   40.3750    1.6070 N   0  0  0  0  0
   -6.6490   38.1740    0.9240 N   0  0  0  0  0
   -7.3480   37.1310    0.4480 C   0  0  0  0  0
   -8.4820   31.1991   -5.5916 H   0  0  0  0  0
   -8.5758   29.2914   -3.9959 H   0  0  0  0  0
   -8.7350   31.6623   -1.8960 H   0  0  0  0  0
   -4.7435   33.1258   -2.8004 H   0  0  0  0  0
   -4.2273   31.8203   -1.7021 H   0  0  0  0  0
   -3.3032   33.9494   -0.9810 H   0  0  0  0  0
   -4.6233   32.1704    0.7275 H   0  0  0  0  0
   -3.5254   33.3399    2.3318 H   0  0  0  0  0
   -6.7005   33.4003    0.8990 H   0  0  0  0  0
   -6.6987   34.6569    2.7176 H   0  0  0  0  0
   -5.1030   36.0314    0.8591 H   0  0  0  0  0
   -8.1862   34.2163   -0.6136 H   0  0  0  0  0
   -6.9234   41.2892    1.7714 H   0  0  0  0  0
   -5.6575   38.0657    1.1375 H   0  0  0  0  0
  1  2  2  0  0  0
  1  3  1  0  0  0
  1  4  1  0  0  0
  1  5  1  0  0  0
  5  6  1  0  0  0
  6  7  1  0  0  0
  6  8  2  0  0  0
  6  9  1  0  0  0
  9 10  1  0  0  0
 10 11  1  0  0  0
 11 12  1  0  0  0
 11 13  1  0  0  0
 12 17  1  0  0  0
 13 14  1  0  0  0
 13 15  1  0  0  0
 15 16  1  0  0  0
 15 17  1  0  0  0
 17 18  1  0  0  0
 18 19  4  0  0  0
 18 28  4  0  0  0
 19 20  4  0  0  0
 20 21  4  0  0  0
 21 22  1  0  0  0
 21 28  4  0  0  0
 22 23  2  0  0  0
 22 24  1  0  0  0
 24 25  4  0  0  0
 25 26  2  0  0  0
 25 27  1  0  0  0
 27 28  1  0  0  0
  3 29  1  0  0  0
  4 30  1  0  0  0
  7 31  1  0  0  0
 10 32  1  0  0  0
 10 33  1  0  0  0
 11 34  1  0  0  0
 13 35  1  0  0  0
 14 36  1  0  0  0
 15 37  1  0  0  0
 16 38  1  0  0  0
 17 39  1  0  0  0
 19 40  1  0  0  0
 26 41  1  0  0  0
 27 42  1  0  0  0
M  END
$$$$
