4z7i_ligand
  -I-interpret- 

176179  0  0  0  0  0  0  0  0999 V2000
   -8.6490   35.7050   10.7360 C   0  0  0  0  0
   -8.3040   34.6400   11.7830 C   0  0  0  0  0
   -8.8810   35.8970    8.3860 C   0  0  0  0  0
   -8.1490   35.6080    6.7950 P   0  0  0  0  0
   -7.9640   36.8800    6.1010 O   0  0  0  0  0
   -9.0050   34.7400    5.9960 O   0  0  0  0  0
  -10.1340   35.6160    8.3970 N   0  3  0  0  0
   -8.2230   35.2050    9.3510 C   0  0  0  0  0
   -7.0190   34.3040   12.1910 C   0  0  0  0  0
   -6.8720   33.2990   13.1590 C   0  0  0  0  0
   -7.9160   32.6300   13.7240 C   0  0  0  0  0
   -9.2120   32.9610   13.3180 C   0  0  0  0  0
   -9.3750   33.9610   12.3520 C   0  0  0  0  0
   -4.7880   34.3150    5.4640 C   0  0  0  0  0
   -6.7200   34.9120    7.0030 C   0  0  0  0  0
   -6.6300   32.6430    5.7820 C   0  0  0  0  0
   -7.4640   32.1460    5.0540 O   0  0  0  0  0
   -6.3200   34.1310    5.7140 C   0  0  0  0  0
   -4.4020   34.8090    4.0540 C   0  0  0  0  0
   -4.8770   36.2380    3.8030 C   0  0  0  0  0
   -4.9610   33.8830    2.9680 C   0  0  0  0  0
   -5.9230   31.8790    6.7140 N   0  0  0  0  0
   -6.0920   30.4360    6.8320 C   0  0  0  0  0
   -5.2840   29.7120    5.7620 C   0  0  0  0  0
   -5.8260   28.9540    4.9560 O   0  0  0  0  0
   -7.5710   30.0500    6.7480 C   0  0  0  0  0
   -8.4010   30.5640    7.9190 C   0  0  0  0  0
   -7.6310   30.4270    9.2250 C   0  0  0  0  0
   -8.0760   31.4600   10.2450 C   0  0  0  0  0
   -9.4880   31.2650   10.6550 N   0  3  0  0  0
   -3.9800   29.9640    5.7650 N   0  0  0  0  0
   -3.0520   29.2790    4.8770 C   0  0  0  0  0
   -2.0210   28.4940    5.6810 C   0  0  0  0  0
   -1.6120   28.9060    6.7660 O   0  0  0  0  0
   -2.3470   30.2740    3.9500 C   0  0  0  0  0
   -3.0400   30.4780    2.6380 C   0  0  0  0  0
   -2.5720   31.3490    1.6780 N   0  0  0  0  0
   -4.1610   29.9180    2.1230 C   0  0  0  0  0
   -3.3770   31.3210    0.6300 C   0  0  0  0  0
   -4.3480   30.4610    0.8750 N   0  0  0  0  0
   -1.6200   27.3530    5.1340 N   0  0  0  0  0
   -0.5790   26.5130    5.7080 C   0  0  0  0  0
   -0.0830   25.6020    4.6010 C   0  0  0  0  0
    0.8840   25.9080    3.9030 O   0  0  0  0  0
   -1.1030   25.6910    6.8900 C   0  0  0  0  0
   -0.8500   26.3150    8.2280 C   0  0  0  0  0
   -1.8640   26.7780    9.0390 N   0  0  0  0  0
    0.3030   26.5430    8.9010 C   0  0  0  0  0
   -1.3470   27.2670   10.1510 C   0  0  0  0  0
   -0.0340   27.1380   10.0930 N   0  0  0  0  0
   -0.7730   24.4790    4.4480 N   0  0  0  0  0
   -0.6280   23.6260    3.2820 C   0  0  0  0  0
   -2.0260   23.3290    2.7570 C   0  0  0  0  0
   -2.9660   24.0760    3.0410 O   0  0  0  0  0
    0.1110   22.3460    3.6290 C   0  0  0  0  0
   -2.1530   22.2550    1.9830 N   0  0  0  0  0
   -3.4540   21.7120    1.5890 C   0  0  0  0  0
   -4.2960   22.5730    0.6540 C   0  0  0  0  0
   -4.6580   22.1250   -0.4360 O   0  0  0  0  0
   -4.2960   21.4130    2.8330 C   0  0  0  0  0
   -4.1190   20.0300    3.3660 C   0  0  0  0  0
   -3.1830   19.1780    2.8140 C   0  0  0  0  0
   -4.9030   19.5730    4.4090 C   0  0  0  0  0
   -3.0230   17.8960    3.3020 C   0  0  0  0  0
   -4.7510   18.2940    4.9000 C   0  0  0  0  0
   -3.8070   17.4550    4.3440 C   0  0  0  0  0
   -4.5980   23.7950    1.0930 N   0  0  0  0  0
   -5.7640   24.5470    0.6240 C   0  0  0  0  0
   -6.9910   23.7320    1.0250 C   0  0  0  0  0
   -7.4300   23.7990    2.1740 O   0  0  0  0  0
   -5.7300   24.8050   -0.8890 C   0  0  0  0  0
   -4.5930   25.5660   -1.2580 O   0  0  0  0  0
   -7.5270   22.9810    0.0630 N   0  0  0  0  0
   -8.4720   21.8760    0.2820 C   0  0  0  0  0
   -9.3500   21.9220    1.5310 C   0  0  0  0  0
  -10.5520   22.1720    1.4530 O   0  0  0  0  0
   -7.6920   20.5570    0.3050 C   0  0  0  0  0
   -8.7310   21.6660    2.6780 N   0  0  0  0  0
   -9.4550   21.4180    3.9190 C   0  0  0  0  0
   -9.3920   22.6000    4.8820 C   0  0  0  0  0
  -10.2360   22.7570    5.7670 O   0  0  0  0  0
   -8.8930   20.1670    4.5890 C   0  0  0  0  0
   -9.6780   19.6630    5.7750 C   0  0  0  0  0
   -9.2990   18.2220    6.0410 C   0  0  0  0  0
  -10.3430   17.5130    6.8780 C   0  0  0  0  0
  -10.5350   16.1180    6.3940 N   0  3  0  0  0
   -8.4880   23.4290    4.7960 O   0  0  0  0  0
   -8.1234   36.6311   10.9687 H   0  0  0  0  0
   -9.7229   35.8918   10.7436 H   0  0  0  0  0
   -8.7870   36.9622    8.5975 H   0  0  0  0  0
   -7.4002   37.4514    6.6275 H   0  0  0  0  0
  -10.6066   36.1465    7.6652 H   0  0  0  0  0
  -10.2588   34.6176    8.2294 H   0  0  0  0  0
  -10.5283   35.8614    9.3051 H   0  0  0  0  0
   -8.4649   34.1460    9.2616 H   0  0  0  0  0
   -7.1498   35.3529    9.2304 H   0  0  0  0  0
   -6.1486   34.8076   11.7704 H   0  0  0  0  0
   -5.8629   33.0380   13.4779 H   0  0  0  0  0
   -7.7450   31.8569   14.4731 H   0  0  0  0  0
  -10.0764   32.4518   13.7441 H   0  0  0  0  0
  -10.3849   34.2181   12.0324 H   0  0  0  0  0
   -4.3327   33.3320    5.5848 H   0  0  0  0  0
   -4.4477   35.0773    6.1648 H   0  0  0  0  0
   -6.7758   34.2183    7.8419 H   0  0  0  0  0
   -5.9722   35.6784    7.2066 H   0  0  0  0  0
   -6.9154   34.5427    4.8991 H   0  0  0  0  0
   -3.3131   34.7952    4.0060 H   0  0  0  0  0
   -5.9622   36.2803    3.8955 H   0  0  0  0  0
   -4.4223   36.9046    4.5358 H   0  0  0  0  0
   -4.5844   36.5457    2.7991 H   0  0  0  0  0
   -4.5598   32.8790    3.1066 H   0  0  0  0  0
   -6.0482   33.8545    3.0409 H   0  0  0  0  0
   -4.6711   34.2593    1.9869 H   0  0  0  0  0
   -5.2640   32.3485    7.3350 H   0  0  0  0  0
   -5.7189   30.1297    7.8093 H   0  0  0  0  0
   -7.6267   28.9615    6.7597 H   0  0  0  0  0
   -7.9750   30.4962    5.8392 H   0  0  0  0  0
   -9.3168   29.9768    7.9865 H   0  0  0  0  0
   -8.6299   31.6168    7.7536 H   0  0  0  0  0
   -6.5717   30.5799    9.0187 H   0  0  0  0  0
   -7.8195   29.4345    9.6342 H   0  0  0  0  0
   -7.9864   32.4470    9.7913 H   0  0  0  0  0
   -7.4474   31.3578   11.1296 H   0  0  0  0  0
   -9.7439   31.9778   11.3382 H   0  0  0  0  0
  -10.0923   31.3438    9.8371 H   0  0  0  0  0
   -9.5954   30.3398   11.0707 H   0  0  0  0  0
   -3.6157   30.6626    6.4128 H   0  0  0  0  0
   -3.6256   28.5828    4.2651 H   0  0  0  0  0
   -1.3575   29.8708    3.7344 H   0  0  0  0  0
   -2.3305   31.2368    4.4607 H   0  0  0  0  0
   -4.7954   29.1760    2.6078 H   0  0  0  0  0
   -3.2592   31.9078   -0.2810 H   0  0  0  0  0
   -2.0639   27.0494    4.2673 H   0  0  0  0  0
    0.2287   27.1324    6.0980 H   0  0  0  0  0
   -0.5795   24.7350    6.8756 H   0  0  0  0  0
   -2.1834   25.6081    6.7717 H   0  0  0  0  0
    1.3097   26.3001    8.5609 H   0  0  0  0  0
   -1.9087   27.7033   10.9770 H   0  0  0  0  0
   -1.4307   24.2044    5.1777 H   0  0  0  0  0
   -0.0361   24.1281    2.5168 H   0  0  0  0  0
    1.1033   22.5920    4.0071 H   0  0  0  0  0
   -0.4456   21.8022    4.3923 H   0  0  0  0  0
    0.2040   21.7281    2.7359 H   0  0  0  0  0
   -1.3084   21.7901    1.6499 H   0  0  0  0  0
   -3.1962   20.8168    1.0231 H   0  0  0  0  0
   -5.3429   21.5190    2.5487 H   0  0  0  0  0
   -3.9776   22.1041    3.6134 H   0  0  0  0  0
   -2.5642   19.5207    1.9847 H   0  0  0  0  0
   -5.6510   20.2327    4.8488 H   0  0  0  0  0
   -2.2768   17.2341    2.8626 H   0  0  0  0  0
   -5.3740   17.9467    5.7242 H   0  0  0  0  0
   -3.6822   16.4432    4.7298 H   0  0  0  0  0
   -3.9886   24.2264    1.7879 H   0  0  0  0  0
   -5.7804   25.5379    1.0778 H   0  0  0  0  0
   -6.6247   25.3630   -1.1653 H   0  0  0  0  0
   -5.6858   23.8449   -1.4031 H   0  0  0  0  0
   -4.6001   25.7102   -2.2071 H   0  0  0  0  0
   -7.2610   23.1889   -0.8995 H   0  0  0  0  0
   -9.1721   21.9719   -0.5479 H   0  0  0  0  0
   -7.1798   20.4226   -0.6477 H   0  0  0  0  0
   -6.9599   20.5834    1.1121 H   0  0  0  0  0
   -8.3836   19.7302    0.4669 H   0  0  0  0  0
   -7.7114   21.6420    2.6911 H   0  0  0  0  0
  -10.5051   21.2730    3.6653 H   0  0  0  0  0
  -10.8795   22.0459    5.7237 H   0  0  0  0  0
   -7.9021   20.4296    4.9593 H   0  0  0  0  0
   -8.9155   19.3751    3.8404 H   0  0  0  0  0
  -10.7454   19.7293    5.5641 H   0  0  0  0  0
   -9.4506   20.2704    6.6510 H   0  0  0  0  0
   -8.3556   18.2104    6.5869 H   0  0  0  0  0
   -9.2180   17.7062    5.0842 H   0  0  0  0  0
  -11.2879   18.0503    6.7975 H   0  0  0  0  0
  -10.0090   17.4865    7.9152 H   0  0  0  0  0
  -11.2401   15.6546    6.9671 H   0  0  0  0  0
  -10.8434   16.1361    5.4219 H   0  0  0  0  0
   -9.6525   15.6111    6.4626 H   0  0  0  0  0
  1  2  1  0  0  0
  8  1  1  0  0  0
  2  9  4  0  0  0
  2 13  4  0  0  0
  4  3  1  0  0  0
  3  7  1  0  0  0
  3  8  1  0  0  0
  4  5  1  0  0  0
  4  6  2  0  0  0
 15  4  1  0  0  0
  9 10  4  0  0  0
 10 11  4  0  0  0
 12 11  4  0  0  0
 13 12  4  0  0  0
 18 14  1  0  0  0
 14 19  1  0  0  0
 18 15  1  0  0  0
 16 17  2  0  0  0
 16 18  1  0  0  0
 16 22  1  0  0  0
 19 20  1  0  0  0
 19 21  1  0  0  0
 22 23  1  0  0  0
 23 24  1  0  0  0
 23 26  1  0  0  0
 24 25  2  0  0  0
 24 31  1  0  0  0
 26 27  1  0  0  0
 27 28  1  0  0  0
 28 29  1  0  0  0
 29 30  1  0  0  0
 31 32  1  0  0  0
 32 33  1  0  0  0
 32 35  1  0  0  0
 33 34  2  0  0  0
 33 41  1  0  0  0
 35 36  1  0  0  0
 36 37  4  0  0  0
 36 38  4  0  0  0
 37 39  4  0  0  0
 38 40  4  0  0  0
 39 40  4  0  0  0
 41 42  1  0  0  0
 42 43  1  0  0  0
 42 45  1  0  0  0
 43 44  2  0  0  0
 43 51  1  0  0  0
 45 46  1  0  0  0
 46 47  4  0  0  0
 46 48  4  0  0  0
 47 49  4  0  0  0
 48 50  4  0  0  0
 49 50  4  0  0  0
 51 52  1  0  0  0
 52 53  1  0  0  0
 52 55  1  0  0  0
 53 54  2  0  0  0
 53 56  1  0  0  0
 56 57  1  0  0  0
 57 58  1  0  0  0
 57 60  1  0  0  0
 58 59  2  0  0  0
 58 67  1  0  0  0
 60 61  1  0  0  0
 61 62  4  0  0  0
 61 63  4  0  0  0
 62 64  4  0  0  0
 63 65  4  0  0  0
 64 66  4  0  0  0
 65 66  4  0  0  0
 67 68  1  0  0  0
 68 69  1  0  0  0
 68 71  1  0  0  0
 69 70  2  0  0  0
 69 73  1  0  0  0
 71 72  1  0  0  0
 73 74  1  0  0  0
 74 75  1  0  0  0
 74 77  1  0  0  0
 75 76  2  0  0  0
 75 78  1  0  0  0
 78 79  1  0  0  0
 79 80  1  0  0  0
 79 82  1  0  0  0
 80 81  1  0  0  0
 80 87  2  0  0  0
 82 83  1  0  0  0
 83 84  1  0  0  0
 84 85  1  0  0  0
 85 86  1  0  0  0
  1 88  1  0  0  0
  1 89  1  0  0  0
  3 90  1  0  0  0
  5 91  1  0  0  0
  7 92  1  0  0  0
  7 93  1  0  0  0
  7 94  1  0  0  0
  8 95  1  0  0  0
  8 96  1  0  0  0
  9 97  1  0  0  0
 10 98  1  0  0  0
 11 99  1  0  0  0
 12100  1  0  0  0
 13101  1  0  0  0
 14102  1  0  0  0
 14103  1  0  0  0
 15104  1  0  0  0
 15105  1  0  0  0
 18106  1  0  0  0
 19107  1  0  0  0
 20108  1  0  0  0
 20109  1  0  0  0
 20110  1  0  0  0
 21111  1  0  0  0
 21112  1  0  0  0
 21113  1  0  0  0
 22114  1  0  0  0
 23115  1  0  0  0
 26116  1  0  0  0
 26117  1  0  0  0
 27118  1  0  0  0
 27119  1  0  0  0
 28120  1  0  0  0
 28121  1  0  0  0
 29122  1  0  0  0
 29123  1  0  0  0
 30124  1  0  0  0
 30125  1  0  0  0
 30126  1  0  0  0
 31127  1  0  0  0
 32128  1  0  0  0
 35129  1  0  0  0
 35130  1  0  0  0
 38131  1  0  0  0
 39132  1  0  0  0
 41133  1  0  0  0
 42134  1  0  0  0
 45135  1  0  0  0
 45136  1  0  0  0
 48137  1  0  0  0
 49138  1  0  0  0
 51139  1  0  0  0
 52140  1  0  0  0
 55141  1  0  0  0
 55142  1  0  0  0
 55143  1  0  0  0
 56144  1  0  0  0
 57145  1  0  0  0
 60146  1  0  0  0
 60147  1  0  0  0
 62148  1  0  0  0
 63149  1  0  0  0
 64150  1  0  0  0
 65151  1  0  0  0
 66152  1  0  0  0
 67153  1  0  0  0
 68154  1  0  0  0
 71155  1  0  0  0
 71156  1  0  0  0
 72157  1  0  0  0
 73158  1  0  0  0
 74159  1  0  0  0
 77160  1  0  0  0
 77161  1  0  0  0
 77162  1  0  0  0
 78163  1  0  0  0
 79164  1  0  0  0
 81165  1  0  0  0
 82166  1  0  0  0
 82167  1  0  0  0
 83168  1  0  0  0
 83169  1  0  0  0
 84170  1  0  0  0
 84171  1  0  0  0
 85172  1  0  0  0
 85173  1  0  0  0
 86174  1  0  0  0
 86175  1  0  0  0
 86176  1  0  0  0
M  END
$$$$
