5ags_ligand
  -I-interpret- 

 63 68  0  0  0  0  0  0  0  0999 V2000
  -15.8140    5.7250  -11.0270 B   0  0  0  0  0
  -22.6680    4.7920   -9.9480 P   0  0  0  0  0
  -21.0820    6.2260  -17.8660 N   0  0  0  0  0
  -14.6560    6.5830  -11.0840 O   0  0  0  0  0
  -20.3740    5.1580  -17.4620 C   0  0  0  0  0
  -19.7490    5.1600  -16.2690 N   0  0  0  0  0
  -19.8540    6.2590  -15.4870 C   0  0  0  0  0
  -20.5890    7.3700  -15.8880 C   0  0  0  0  0
  -21.2200    7.3540  -17.1320 C   0  0  0  0  0
  -21.9470    8.4120  -17.5770 N   0  0  0  0  0
  -20.5020    8.3060  -14.9130 N   0  0  0  0  0
  -19.7530    7.7630  -13.9370 C   0  0  0  0  0
  -19.3470    6.5230  -14.2720 N   0  0  0  0  0
  -11.1920    3.8560   -9.4920 Br  0  0  0  0  0
  -18.4670    5.5840  -13.5140 C   0  0  0  0  0
  -13.4120    5.9240  -10.7980 C   0  0  0  0  0
  -13.8480    4.6180  -10.2670 C   0  0  0  0  0
  -15.2700    4.4570  -10.4440 C   0  0  0  0  0
  -13.0200    3.5460   -9.7000 C   0  0  0  0  0
  -13.6430    2.3680   -9.2690 C   0  0  0  0  0
  -15.0220    2.2050   -9.4120 C   0  0  0  0  0
  -15.8710    3.1880   -9.9570 C   0  0  0  0  0
  -23.4190    3.5420  -10.3540 O   0  0  0  0  0
  -17.4210    6.3390  -12.7040 C   0  0  0  0  0
  -16.3040    5.5290  -12.3980 O   0  0  0  0  0
  -22.1230    4.7300   -8.5380 O   0  0  0  0  0
  -18.0460    6.5340  -11.3460 C   0  0  0  0  0
  -16.9630    6.3370  -10.4420 O   0  0  0  0  0
  -12.6590    5.7340  -12.1340 C   0  0  0  0  0
  -13.4930    5.0830  -13.1700 N   0  3  0  0  0
  -17.2150    3.0270  -10.0880 O   0  0  0  0  0
  -17.8320    1.8550   -9.5190 C   0  0  0  0  0
  -19.3150    2.0500   -9.6980 C   0  0  0  0  0
  -23.3400    6.0730  -10.2840 O   0  0  0  0  0
  -19.0710    5.4030  -11.2540 C   0  0  0  0  0
  -19.1730    4.7950  -12.5580 O   0  0  0  0  0
  -20.4660    5.9030  -10.8970 C   0  0  0  0  0
  -21.3410    4.7730  -10.8860 O   0  0  0  0  0
  -20.3048    4.2814  -18.1061 H   0  0  0  0  0
  -22.4064    8.3686  -18.4867 H   0  0  0  0  0
  -22.0334    9.2496  -17.0014 H   0  0  0  0  0
  -19.5069    8.2605  -12.9989 H   0  0  0  0  0
  -18.0264    4.9506  -14.2839 H   0  0  0  0  0
  -12.7551    6.4591  -10.1122 H   0  0  0  0  0
  -13.0474    1.5736   -8.8192 H   0  0  0  0  0
  -15.4663    1.2653   -9.0838 H   0  0  0  0  0
  -22.9118    2.7681  -10.0982 H   0  0  0  0  0
  -17.1263    7.2296  -13.2591 H   0  0  0  0  0
  -21.7054    3.8776   -8.3948 H   0  0  0  0  0
  -18.5262    7.4927  -11.1500 H   0  0  0  0  0
  -11.7976    5.0933  -11.9454 H   0  0  0  0  0
  -12.3754    6.7199  -12.5024 H   0  0  0  0  0
  -12.9503    4.9821  -14.0277 H   0  0  0  0  0
  -13.7852    4.1628  -12.8408 H   0  0  0  0  0
  -14.3160    5.6572  -13.3526 H   0  0  0  0  0
  -17.5698    1.7376   -8.4675 H   0  0  0  0  0
  -17.4877    0.9452  -10.0107 H   0  0  0  0  0
  -19.6265    2.9557   -9.1776 H   0  0  0  0  0
  -19.5423    2.1432  -10.7599 H   0  0  0  0  0
  -19.8454    1.1917   -9.2855 H   0  0  0  0  0
  -18.7353    4.7157  -10.4775 H   0  0  0  0  0
  -20.8044    6.6385  -11.6268 H   0  0  0  0  0
  -20.4579    6.3868   -9.9203 H   0  0  0  0  0
  1  4  1  0  0  0
  1 25  1  0  0  0
 28  1  1  0  0  0
  2 23  1  0  0  0
  2 26  1  0  0  0
  2 34  2  0  0  0
 38  2  1  0  0  0
  5  3  4  0  0  0
  9  3  4  0  0  0
  4 16  1  0  0  0
  6  5  4  0  0  0
  7  6  4  0  0  0
  7  8  4  0  0  0
 13  7  4  0  0  0
  8  9  4  0  0  0
 11  8  4  0  0  0
  9 10  1  0  0  0
 12 11  4  0  0  0
 13 12  4  0  0  0
 15 13  1  0  0  0
 19 14  1  0  0  0
 15 24  1  0  0  0
 36 15  1  0  0  0
 16 17  1  0  0  0
 16 29  1  0  0  0
 17 18  4  0  0  0
 17 19  4  0  0  0
 18 22  4  0  0  0
 19 20  4  0  0  0
 20 21  4  0  0  0
 22 21  4  0  0  0
 22 31  1  0  0  0
 24 25  1  0  0  0
 27 24  1  0  0  0
 27 28  1  0  0  0
 35 27  1  0  0  0
 29 30  1  0  0  0
 31 32  1  0  0  0
 32 33  1  0  0  0
 35 36  1  0  0  0
 37 35  1  0  0  0
 37 38  1  0  0  0
 18  1  1  0  0  0
  5 39  1  0  0  0
 10 40  1  0  0  0
 10 41  1  0  0  0
 12 42  1  0  0  0
 15 43  1  0  0  0
 16 44  1  0  0  0
 20 45  1  0  0  0
 21 46  1  0  0  0
 23 47  1  0  0  0
 24 48  1  0  0  0
 26 49  1  0  0  0
 27 50  1  0  0  0
 29 51  1  0  0  0
 29 52  1  0  0  0
 30 53  1  0  0  0
 30 54  1  0  0  0
 30 55  1  0  0  0
 32 56  1  0  0  0
 32 57  1  0  0  0
 33 58  1  0  0  0
 33 59  1  0  0  0
 33 60  1  0  0  0
 35 61  1  0  0  0
 37 62  1  0  0  0
 37 63  1  0  0  0
M  END
$$$$
