5aqk_ligand
  -I-interpret- 

 42 44  0  0  0  0  0  0  0  0999 V2000
   52.4250    1.9980  140.6380 P   0  0  0  0  0
   51.7960    1.9130  142.0050 O   0  0  0  0  0
   51.3770    1.9820  139.4930 O   0  0  0  0  0
   53.4130    0.8410  140.3550 O   0  0  0  0  0
   53.2030    3.3880  140.4970 O   0  0  0  0  0
   54.3680    4.1680  141.2630 P   0  0  0  0  0
   55.5620    4.1510  140.3930 O   0  0  0  0  0
   53.9490    5.6390  141.3640 O   0  0  0  0  0
   54.6160    3.6440  142.7880 O   0  0  0  0  0
   54.0290    4.1610  144.0050 C   0  0  0  0  0
   54.9230    3.9010  145.1920 C   0  0  0  0  0
   56.1530    4.6550  145.0820 O   0  0  0  0  0
   54.3090    4.2500  146.5610 C   0  0  0  0  0
   54.3290    3.1460  147.4610 O   0  0  0  0  0
   55.1790    5.4110  147.0660 C   0  0  0  0  0
   55.3210    5.4050  148.4840 O   0  0  0  0  0
   56.5060    5.1160  146.3700 C   0  0  0  0  0
   57.4030    6.2900  146.2550 N   0  0  0  0  0
   57.2080    7.4260  145.5120 C   0  0  0  0  0
   58.1170    8.3560  145.7290 N   0  0  0  0  0
   58.9590    7.7970  146.6750 C   0  0  0  0  0
   60.1370    8.3280  147.3700 C   0  0  0  0  0
   60.6040    9.4700  147.3210 O   0  0  0  0  0
   60.6950    7.3950  148.2190 N   0  0  0  0  0
   60.2090    6.1360  148.4460 C   0  0  0  0  0
   60.7840    5.4450  149.4260 N   0  0  0  0  0
   59.1350    5.6360  147.8330 N   0  0  0  0  0
   58.5500    6.5100  146.9840 C   0  0  0  0  0
   51.8278    2.0380  138.6473 H   0  0  0  0  0
   53.7821    0.9449  139.4749 H   0  0  0  0  0
   53.1713    5.7114  141.9221 H   0  0  0  0  0
   53.0744    3.6619  144.1713 H   0  0  0  0  0
   53.8954    5.2375  143.8980 H   0  0  0  0  0
   55.0882    2.8240  145.1617 H   0  0  0  0  0
   53.2545    4.5148  146.4836 H   0  0  0  0  0
   53.9380    3.4092  148.2973 H   0  0  0  0  0
   54.7637    6.3951  146.8486 H   0  0  0  0  0
   55.8702    6.1452  148.7526 H   0  0  0  0  0
   57.0706    4.3913  146.9566 H   0  0  0  0  0
   56.3825    7.5481  144.8108 H   0  0  0  0  0
   61.5459    5.8592  149.9631 H   0  0  0  0  0
   58.7898    4.6890  147.9893 H   0  0  0  0  0
  1  2  2  0  0  0
  1  3  1  0  0  0
  1  4  1  0  0  0
  1  5  1  0  0  0
  5  6  1  0  0  0
  6  7  2  0  0  0
  6  8  1  0  0  0
  6  9  1  0  0  0
  9 10  1  0  0  0
 10 11  1  0  0  0
 11 12  1  0  0  0
 11 13  1  0  0  0
 12 17  1  0  0  0
 13 14  1  0  0  0
 13 15  1  0  0  0
 15 16  1  0  0  0
 15 17  1  0  0  0
 17 18  1  0  0  0
 18 19  4  0  0  0
 18 28  4  0  0  0
 19 20  4  0  0  0
 20 21  4  0  0  0
 21 22  1  0  0  0
 21 28  4  0  0  0
 22 23  2  0  0  0
 22 24  1  0  0  0
 24 25  4  0  0  0
 25 26  2  0  0  0
 25 27  1  0  0  0
 27 28  1  0  0  0
  3 29  1  0  0  0
  4 30  1  0  0  0
  8 31  1  0  0  0
 10 32  1  0  0  0
 10 33  1  0  0  0
 11 34  1  0  0  0
 13 35  1  0  0  0
 14 36  1  0  0  0
 15 37  1  0  0  0
 16 38  1  0  0  0
 17 39  1  0  0  0
 19 40  1  0  0  0
 26 41  1  0  0  0
 27 42  1  0  0  0
M  END
$$$$
