5dv2_ligand
  -I-interpret- 

 34 35  0  0  0  0  0  0  0  0999 V2000
  -34.0110   12.6820   11.5870 O   0  0  0  0  0
  -32.5170   12.6130   11.3330 P   0  0  0  0  0
  -32.1460   13.6380   10.2510 O   0  0  0  0  0
  -31.9200   11.2540   10.9930 O   0  0  0  0  0
  -31.8100   13.0550   12.6900 O   0  0  0  0  0
  -32.4840   12.9020   13.9270 C   0  0  0  0  0
  -31.6500   13.3800   15.0870 C   0  0  0  0  0
  -31.7900   14.8200   15.2320 O   0  0  0  0  0
  -32.0510   12.8270   16.4470 C   0  0  0  0  0
  -31.5140   11.5370   16.6960 O   0  0  0  0  0
  -31.5420   13.8900   17.4100 C   0  0  0  0  0
  -30.1510   13.7090   17.6430 O   0  0  0  0  0
  -31.7490   15.1730   16.5940 C   0  0  0  0  0
  -33.0040   15.8850   16.9490 N   0  0  0  0  0
  -32.9920   16.6390   18.2130 C   0  0  0  0  0
  -34.1860   17.3890   18.6540 N   0  0  0  0  0
  -35.3500   17.4070   17.8740 C   0  0  0  0  0
  -35.3800   16.6500   16.5940 C   0  0  0  0  0
  -34.1870   15.8900   16.1410 C   0  0  0  0  0
  -31.9800   16.6260   18.8940 O   0  0  0  0  0
  -36.4870   18.1730   18.3630 N   0  0  0  0  0
  -31.2012   13.5992   10.0856 H   0  0  0  0  0
  -30.9742   11.3463   10.8566 H   0  0  0  0  0
  -32.6940   11.8423   14.0720 H   0  0  0  0  0
  -33.3959   13.4982   13.8943 H   0  0  0  0  0
  -30.6443   13.0390   14.8411 H   0  0  0  0  0
  -33.1239   12.6590   16.5409 H   0  0  0  0  0
  -31.7961   11.2361   17.5629 H   0  0  0  0  0
  -32.0361   13.8799   18.3815 H   0  0  0  0  0
  -29.8391   14.3833   18.2509 H   0  0  0  0  0
  -30.9245   15.8512   16.8138 H   0  0  0  0  0
  -36.2836   16.6530   15.9843 H   0  0  0  0  0
  -34.2114   15.3399   15.2003 H   0  0  0  0  0
  -36.4208   18.6752   19.2484 H   0  0  0  0  0
  1  2  2  0  0  0
  2  3  1  0  0  0
  2  4  1  0  0  0
  2  5  1  0  0  0
  5  6  1  0  0  0
  6  7  1  0  0  0
  7  8  1  0  0  0
  7  9  1  0  0  0
  8 13  1  0  0  0
  9 10  1  0  0  0
  9 11  1  0  0  0
 11 12  1  0  0  0
 11 13  1  0  0  0
 13 14  1  0  0  0
 14 15  1  0  0  0
 14 19  1  0  0  0
 15 16  1  0  0  0
 15 20  2  0  0  0
 16 17  4  0  0  0
 17 18  1  0  0  0
 17 21  2  0  0  0
 18 19  2  0  0  0
  3 22  1  0  0  0
  4 23  1  0  0  0
  6 24  1  0  0  0
  6 25  1  0  0  0
  7 26  1  0  0  0
  9 27  1  0  0  0
 10 28  1  0  0  0
 11 29  1  0  0  0
 12 30  1  0  0  0
 13 31  1  0  0  0
 18 32  1  0  0  0
 19 33  1  0  0  0
 21 34  1  0  0  0
M  END
$$$$
