5emb_ligand
  -I-interpret- 

122123  0  0  0  0  0  0  0  0999 V2000
   19.3060    1.1370   -8.6490 N   0  3  0  0  0
   18.8230    0.9920  -10.0210 C   0  0  0  0  0
   17.3960    0.4050   -9.9650 C   0  0  0  0  0
   17.2350   -0.7340   -9.4990 O   0  0  0  0  0
   19.7520    0.1000  -10.8490 C   0  0  0  0  0
   19.4470    0.1430  -12.3700 C   0  0  0  0  0
   20.1390   -1.0420  -13.0300 C   0  0  0  0  0
   21.1380   -1.6230  -12.3470 O   0  0  0  0  0
   19.7920   -1.2900  -14.3020 O   0  0  0  0  0
   16.4370    1.2290  -10.4200 N   0  0  0  0  0
   15.0290    0.8560  -10.4480 C   0  0  0  0  0
   14.4920    0.8950  -11.8840 C   0  0  0  0  0
   14.8850    1.7240  -12.7080 O   0  0  0  0  0
   14.1420    1.7080   -9.6260 C   0  0  0  0  0
   14.4810    1.6600   -8.1200 C   0  0  0  0  0
   13.4890    2.2850   -7.1550 C   0  0  0  0  0
   12.4530    2.8020   -7.5540 O   0  0  0  0  0
   13.7690    2.1930   -5.9510 O   0  0  0  0  0
   13.5920   -0.0150  -12.1430 N   0  0  0  0  0
   12.8740   -0.0910  -13.3980 C   0  0  0  0  0
   11.3760    0.0380  -13.1460 C   0  0  0  0  0
   10.8710   -0.4070  -12.1140 O   0  0  0  0  0
   13.1350   -1.4130  -14.1120 C   0  0  0  0  0
   14.4150   -1.4960  -14.8780 C   0  0  0  0  0
   15.5570   -0.7820  -14.7080 C   0  0  0  0  0
   14.6440   -2.3690  -15.9900 C   0  0  0  0  0
   16.4840   -1.1920  -15.6040 N   0  0  0  0  0
   15.9610   -2.1300  -16.4320 C   0  0  0  0  0
   13.8470   -3.2720  -16.7130 C   0  0  0  0  0
   16.5150   -2.7860  -17.5230 C   0  0  0  0  0
   14.4080   -3.9390  -17.7600 C   0  0  0  0  0
   15.7110   -3.6880  -18.1770 C   0  0  0  0  0
   10.6850    0.5710  -14.1360 N   0  0  0  0  0
    9.2330    0.7080  -14.1430 C   0  0  0  0  0
    9.0210    2.2010  -14.1410 C   0  0  0  0  0
    7.6280    2.4690  -13.9460 O   0  0  0  0  0
    8.7060    0.0020  -15.3830 C   0  0  0  0  0
    9.2650    0.1700  -16.4620 O   0  0  0  0  0
    7.2710    4.0300  -13.6760 P   0  0  0  0  0
    8.0580    4.6590  -12.5930 O   0  0  0  0  0
    7.5390    4.7440  -15.0450 O   0  0  0  0  0
    5.7810    3.9330  -13.4770 O   0  0  0  0  0
    7.6260   -0.7750  -15.2350 N   0  0  0  0  0
    7.0520   -1.5400  -16.3280 C   0  0  0  0  0
    5.5350   -1.3590  -16.3220 C   0  0  0  0  0
    4.9010   -1.4240  -15.2690 O   0  0  0  0  0
    7.4100   -3.0400  -16.2040 C   0  0  0  0  0
    8.8260   -3.1460  -16.0270 O   0  0  0  0  0
    6.9600   -3.8650  -17.3930 C   0  0  0  0  0
    4.9820   -1.1870  -17.5300 N   0  0  0  0  0
    3.5430   -0.9950  -17.7240 C   0  0  0  0  0
    2.8680   -2.3490  -17.8280 C   0  0  0  0  0
    3.2510   -3.1770  -18.6930 O   0  0  0  0  0
    3.2850   -0.1730  -18.9980 C   0  0  0  0  0
    1.7940    0.0830  -19.1540 C   0  0  0  0  0
    4.0390    1.1530  -18.9570 C   0  0  0  0  0
    1.8780   -2.6100  -17.0130 N   0  0  0  0  0
    1.2180   -3.9270  -16.9360 C   0  0  0  0  0
   -0.2880   -3.7980  -17.3420 C   0  0  0  0  0
   -0.8600   -4.8580  -17.6450 O   0  0  0  0  0
    1.3400   -4.5500  -15.5260 C   0  0  0  0  0
    2.7040   -4.4660  -14.8290 C   0  0  0  0  0
    4.1360   -5.0000  -15.8230 S   0  0  0  0  0
    3.8230   -6.7340  -15.9980 C   0  0  0  0  0
   -0.8910   -2.7120  -17.2530 O   0  0  0  0  0
   18.6664    1.7352   -8.1261 H   0  0  0  0  0
   19.3524    0.2188   -8.2073 H   0  0  0  0  0
   20.2351    1.5579   -8.6596 H   0  0  0  0  0
   18.8084    1.9658  -10.5105 H   0  0  0  0  0
   19.6093   -0.9270  -10.5128 H   0  0  0  0  0
   20.7703    0.4618  -10.7063 H   0  0  0  0  0
   19.8131    1.0760  -12.7985 H   0  0  0  0  0
   18.3713    0.0885  -12.5373 H   0  0  0  0  0
   21.1680   -1.2627  -11.4577 H   0  0  0  0  0
   16.7056    2.1526  -10.7594 H   0  0  0  0  0
   15.0094   -0.1482  -10.0246 H   0  0  0  0  0
   13.1232    1.3401   -9.7480 H   0  0  0  0  0
   14.2679    2.7375   -9.9612 H   0  0  0  0  0
   15.3998    2.2358   -8.0086 H   0  0  0  0  0
   14.5136    0.6017   -7.8612 H   0  0  0  0  0
   14.6195    1.7585   -5.8537 H   0  0  0  0  0
   13.3841   -0.7080  -11.4241 H   0  0  0  0  0
   13.2269    0.7251  -14.0286 H   0  0  0  0  0
   12.3323   -1.5339  -14.8395 H   0  0  0  0  0
   13.1904   -2.1765  -13.3360 H   0  0  0  0  0
   15.7044    0.0010  -13.9642 H   0  0  0  0  0
   12.8038   -3.4352  -16.4425 H   0  0  0  0  0
   17.5386   -2.5946  -17.8452 H   0  0  0  0  0
   13.8192   -4.6906  -18.2858 H   0  0  0  0  0
   16.1038   -4.2198  -19.0436 H   0  0  0  0  0
   11.1998    0.9091  -14.9490 H   0  0  0  0  0
    8.7045    0.2590  -13.3021 H   0  0  0  0  0
    9.3486    2.6219  -15.0916 H   0  0  0  0  0
    9.6006    2.6553  -13.3374 H   0  0  0  0  0
    7.0194    4.3208  -15.7324 H   0  0  0  0  0
    5.3841    3.5095  -14.2417 H   0  0  0  0  0
    7.1877   -0.8322  -14.3158 H   0  0  0  0  0
    7.4640   -1.1752  -17.2689 H   0  0  0  0  0
    6.8756   -3.4468  -15.3455 H   0  0  0  0  0
    9.0691   -4.0713  -15.9478 H   0  0  0  0  0
    5.8771   -3.7930  -17.4946 H   0  0  0  0  0
    7.4370   -3.4870  -18.2973 H   0  0  0  0  0
    7.2433   -4.9062  -17.2392 H   0  0  0  0  0
    5.5890   -1.1899  -18.3497 H   0  0  0  0  0
    3.1319   -0.4507  -16.8738 H   0  0  0  0  0
    3.6468   -0.7442  -19.8530 H   0  0  0  0  0
    1.2688   -0.8693  -19.2267 H   0  0  0  0  0
    1.4290    0.6355  -18.2882 H   0  0  0  0  0
    1.6194    0.6657  -20.0585 H   0  0  0  0  0
    3.7076    1.7314  -18.0946 H   0  0  0  0  0
    5.1086    0.9590  -18.8767 H   0  0  0  0  0
    3.8375    1.7125  -19.8705 H   0  0  0  0  0
    1.5460   -1.8653  -16.4001 H   0  0  0  0  0
    1.7251   -4.5928  -17.6343 H   0  0  0  0  0
    1.1433   -5.6140  -15.6578 H   0  0  0  0  0
    0.6535   -3.9849  -14.8956 H   0  0  0  0  0
    2.6547   -5.1393  -13.9732 H   0  0  0  0  0
    2.8663   -3.4138  -14.5953 H   0  0  0  0  0
    3.7871   -7.1968  -15.0118 H   0  0  0  0  0
    2.8690   -6.8804  -16.5044 H   0  0  0  0  0
    4.6210   -7.1885  -16.5852 H   0  0  0  0  0
   -0.2701   -2.0215  -17.0094 H   0  0  0  0  0
  1  2  1  0  0  0
  2  3  1  0  0  0
  2  5  1  0  0  0
  3  4  2  0  0  0
  3 10  1  0  0  0
  5  6  1  0  0  0
  6  7  1  0  0  0
  7  8  1  0  0  0
  7  9  2  0  0  0
 10 11  1  0  0  0
 11 12  1  0  0  0
 11 14  1  0  0  0
 12 13  2  0  0  0
 12 19  1  0  0  0
 14 15  1  0  0  0
 15 16  1  0  0  0
 16 17  2  0  0  0
 16 18  1  0  0  0
 19 20  1  0  0  0
 20 21  1  0  0  0
 20 23  1  0  0  0
 21 22  2  0  0  0
 21 33  1  0  0  0
 23 24  1  0  0  0
 24 25  4  0  0  0
 24 26  4  0  0  0
 25 27  4  0  0  0
 26 28  4  0  0  0
 26 29  4  0  0  0
 27 28  4  0  0  0
 28 30  4  0  0  0
 29 31  4  0  0  0
 30 32  4  0  0  0
 31 32  4  0  0  0
 33 34  1  0  0  0
 34 35  1  0  0  0
 34 37  1  0  0  0
 35 36  1  0  0  0
 36 39  1  0  0  0
 37 38  2  0  0  0
 37 43  1  0  0  0
 39 40  2  0  0  0
 39 41  1  0  0  0
 39 42  1  0  0  0
 43 44  1  0  0  0
 44 45  1  0  0  0
 44 47  1  0  0  0
 45 46  2  0  0  0
 45 50  1  0  0  0
 47 48  1  0  0  0
 47 49  1  0  0  0
 50 51  1  0  0  0
 51 52  1  0  0  0
 51 54  1  0  0  0
 52 53  2  0  0  0
 52 57  1  0  0  0
 54 55  1  0  0  0
 54 56  1  0  0  0
 57 58  1  0  0  0
 58 59  1  0  0  0
 58 61  1  0  0  0
 59 60  2  0  0  0
 59 65  1  0  0  0
 61 62  1  0  0  0
 62 63  1  0  0  0
 63 64  1  0  0  0
  1 66  1  0  0  0
  1 67  1  0  0  0
  1 68  1  0  0  0
  2 69  1  0  0  0
  5 70  1  0  0  0
  5 71  1  0  0  0
  6 72  1  0  0  0
  6 73  1  0  0  0
  8 74  1  0  0  0
 10 75  1  0  0  0
 11 76  1  0  0  0
 14 77  1  0  0  0
 14 78  1  0  0  0
 15 79  1  0  0  0
 15 80  1  0  0  0
 18 81  1  0  0  0
 19 82  1  0  0  0
 20 83  1  0  0  0
 23 84  1  0  0  0
 23 85  1  0  0  0
 25 86  1  0  0  0
 29 87  1  0  0  0
 30 88  1  0  0  0
 31 89  1  0  0  0
 32 90  1  0  0  0
 33 91  1  0  0  0
 34 92  1  0  0  0
 35 93  1  0  0  0
 35 94  1  0  0  0
 41 95  1  0  0  0
 42 96  1  0  0  0
 43 97  1  0  0  0
 44 98  1  0  0  0
 47 99  1  0  0  0
 48100  1  0  0  0
 49101  1  0  0  0
 49102  1  0  0  0
 49103  1  0  0  0
 50104  1  0  0  0
 51105  1  0  0  0
 54106  1  0  0  0
 55107  1  0  0  0
 55108  1  0  0  0
 55109  1  0  0  0
 56110  1  0  0  0
 56111  1  0  0  0
 56112  1  0  0  0
 57113  1  0  0  0
 58114  1  0  0  0
 61115  1  0  0  0
 61116  1  0  0  0
 62117  1  0  0  0
 62118  1  0  0  0
 64119  1  0  0  0
 64120  1  0  0  0
 64121  1  0  0  0
 65122  1  0  0  0
M  END
$$$$
