5exx_ligand
  -I-interpret- 

 68 74  0  0  0  0  0  0  0  0999 V2000
   64.7680   43.9270   56.6180 P   0  0  0  0  0
   65.0540   42.5050   56.7050 O   0  0  0  0  0
   63.9810   44.5210   57.6750 O   0  0  0  0  0
   64.2300   44.2730   55.2010 O   0  0  0  0  0
   65.1710   44.1720   54.1790 C   0  0  0  0  0
   64.6330   44.5540   52.8290 C   0  0  0  0  0
   63.2940   44.2110   52.8270 O   0  0  0  0  0
   64.5730   46.0310   52.6850 C   0  0  0  0  0
   65.7180   46.6090   52.1420 O   0  0  0  0  0
   63.4150   46.2390   51.7780 C   0  0  0  0  0
   63.8060   45.7380   50.5440 O   0  0  0  0  0
   62.5010   45.1680   52.1770 C   0  0  0  0  0
   61.4590   45.6320   53.0730 N   0  0  0  0  0
   61.3280   45.2920   54.3320 C   0  0  0  0  0
   60.2400   45.8400   54.8780 N   0  0  0  0  0
   59.6500   46.5500   53.9390 C   0  0  0  0  0
   58.4510   47.3760   53.8420 C   0  0  0  0  0
   57.7160   47.5360   54.8200 O   0  0  0  0  0
   58.1920   47.9430   52.6930 N   0  0  0  0  0
   58.9520   47.7590   51.6540 C   0  0  0  0  0
   58.6310   48.3450   50.5240 N   0  0  0  0  0
   60.0500   47.0300   51.6640 N   0  0  0  0  0
   60.4580   46.4050   52.7600 C   0  0  0  0  0
   65.8820   48.0400   52.6470 P   0  0  0  0  0
   64.6760   48.6990   52.2480 O   0  0  0  0  0
   67.1750   48.5860   52.3270 O   0  0  0  0  0
   65.9070   47.8520   54.1690 O   0  0  0  0  0
   66.8880   46.9540   54.5560 C   0  0  0  0  0
   67.0760   46.7920   56.0500 C   0  0  0  0  0
   67.2400   48.0050   56.7360 O   0  0  0  0  0
   65.9290   46.1280   56.7130 C   0  0  0  0  0
   66.0910   44.7420   56.6860 O   0  0  0  0  0
   66.1030   46.5960   58.1010 C   0  0  0  0  0
   67.1890   45.8500   58.5770 O   0  0  0  0  0
   66.5630   48.0050   57.9670 C   0  0  0  0  0
   65.4590   48.9970   57.8920 N   0  0  0  0  0
   65.0780   49.6190   56.7930 C   0  0  0  0  0
   64.0980   50.4860   56.9960 N   0  0  0  0  0
   63.8060   50.4470   58.2740 C   0  0  0  0  0
   62.8300   51.1220   59.1260 C   0  0  0  0  0
   62.0410   51.9550   58.6800 O   0  0  0  0  0
   62.8320   50.8140   60.3910 N   0  0  0  0  0
   63.6810   49.9280   60.8720 C   0  0  0  0  0
   63.6420   49.6530   62.1710 N   0  0  0  0  0
   64.5840   49.2780   60.1550 N   0  0  0  0  0
   64.7020   49.4820   58.8570 C   0  0  0  0  0
   65.5801   42.2386   55.9474 H   0  0  0  0  0
   65.4841   43.1294   54.1238 H   0  0  0  0  0
   65.9845   44.8585   54.4137 H   0  0  0  0  0
   65.2540   44.0847   52.0660 H   0  0  0  0  0
   64.4833   46.5062   53.6619 H   0  0  0  0  0
   63.0511   47.2664   51.7829 H   0  0  0  0  0
   63.0899   45.8473   49.9140 H   0  0  0  0  0
   61.9902   44.7678   51.3012 H   0  0  0  0  0
   62.0212   44.6426   54.8667 H   0  0  0  0  0
   57.7984   48.9320   50.4724 H   0  0  0  0  0
   60.5988   46.9446   50.8085 H   0  0  0  0  0
   67.8595   48.0094   52.6744 H   0  0  0  0  0
   67.8303   47.3385   54.1658 H   0  0  0  0  0
   66.5824   45.9794   54.1755 H   0  0  0  0  0
   67.9803   46.1862   56.1081 H   0  0  0  0  0
   64.9627   46.3463   56.2584 H   0  0  0  0  0
   65.2194   46.5073   58.7330 H   0  0  0  0  0
   67.3710   46.0967   59.4867 H   0  0  0  0  0
   67.1547   48.2948   58.8353 H   0  0  0  0  0
   65.5251   49.4375   55.8156 H   0  0  0  0  0
   62.9655   50.1238   62.7719 H   0  0  0  0  0
   65.1998   48.6071   60.6144 H   0  0  0  0  0
  1  2  1  0  0  0
  1  3  2  0  0  0
  1  4  1  0  0  0
  1 32  1  0  0  0
  4  5  1  0  0  0
  5  6  1  0  0  0
  6  7  1  0  0  0
  6  8  1  0  0  0
  7 12  1  0  0  0
  8  9  1  0  0  0
  8 10  1  0  0  0
  9 24  1  0  0  0
 10 11  1  0  0  0
 10 12  1  0  0  0
 12 13  1  0  0  0
 13 14  4  0  0  0
 13 23  4  0  0  0
 14 15  4  0  0  0
 15 16  4  0  0  0
 16 17  1  0  0  0
 16 23  4  0  0  0
 17 18  2  0  0  0
 17 19  1  0  0  0
 19 20  4  0  0  0
 20 21  2  0  0  0
 20 22  1  0  0  0
 22 23  1  0  0  0
 24 25  2  0  0  0
 24 26  1  0  0  0
 24 27  1  0  0  0
 27 28  1  0  0  0
 28 29  1  0  0  0
 29 30  1  0  0  0
 29 31  1  0  0  0
 30 35  1  0  0  0
 31 32  1  0  0  0
 31 33  1  0  0  0
 33 34  1  0  0  0
 33 35  1  0  0  0
 35 36  1  0  0  0
 36 37  4  0  0  0
 36 46  4  0  0  0
 37 38  4  0  0  0
 38 39  4  0  0  0
 39 40  1  0  0  0
 39 46  4  0  0  0
 40 41  2  0  0  0
 40 42  1  0  0  0
 42 43  4  0  0  0
 43 44  2  0  0  0
 43 45  1  0  0  0
 45 46  1  0  0  0
  2 47  1  0  0  0
  5 48  1  0  0  0
  5 49  1  0  0  0
  6 50  1  0  0  0
  8 51  1  0  0  0
 10 52  1  0  0  0
 11 53  1  0  0  0
 12 54  1  0  0  0
 14 55  1  0  0  0
 21 56  1  0  0  0
 22 57  1  0  0  0
 26 58  1  0  0  0
 28 59  1  0  0  0
 28 60  1  0  0  0
 29 61  1  0  0  0
 31 62  1  0  0  0
 33 63  1  0  0  0
 34 64  1  0  0  0
 35 65  1  0  0  0
 37 66  1  0  0  0
 44 67  1  0  0  0
 45 68  1  0  0  0
M  END
$$$$
