5goe_ligand
  -I-interpret- 

 42 44  0  0  0  0  0  0  0  0999 V2000
    8.4180   -9.1070   28.5070 P   0  0  0  0  0
    7.5160   -8.0530   27.8800 O   0  0  0  0  0
    7.9750  -10.4990   28.1190 O   0  0  0  0  0
    9.8600   -8.9330   28.0980 O   0  0  0  0  0
    8.4020   -9.0100   30.1160 O   0  0  0  0  0
    7.3030   -8.2430   31.0200 P   0  0  0  0  0
    5.8910   -8.6900   30.7240 O   0  0  0  0  0
    7.4940   -6.7410   30.9850 O   0  0  0  0  0
    7.7450   -8.7710   32.4590 O   0  0  0  0  0
    7.5220  -10.1530   32.7630 C   0  0  0  0  0
    7.3620  -10.3020   34.2620 C   0  0  0  0  0
    8.5180   -9.7500   34.8840 O   0  0  0  0  0
    6.1720   -9.5030   34.7590 C   0  0  0  0  0
    5.5480  -10.1810   35.8550 O   0  0  0  0  0
    6.7760   -8.2380   35.3130 C   0  0  0  0  0
    5.9960   -7.7330   36.3890 O   0  0  0  0  0
    8.1330   -8.7110   35.7810 C   0  0  0  0  0
    9.0860   -7.5800   35.7250 N   0  0  0  0  0
    9.2820   -6.7210   34.6930 C   0  0  0  0  0
   10.2440   -5.8160   35.0100 N   0  0  0  0  0
   10.6770   -6.1160   36.2600 C   0  0  0  0  0
   11.6670   -5.5840   37.2030 C   0  0  0  0  0
   12.3710   -4.5900   36.9210 O   0  0  0  0  0
   11.7950   -6.1760   38.4060 N   0  0  0  0  0
   11.0620   -7.2480   38.7680 C   0  0  0  0  0
   11.2580   -7.7820   40.0040 N   0  0  0  0  0
   10.1360   -7.8080   37.9520 N   0  0  0  0  0
    9.9000   -7.2800   36.7160 C   0  0  0  0  0
    6.6106   -8.1982   28.1641 H   0  0  0  0  0
    7.0579  -10.6243   28.3735 H   0  0  0  0  0
    8.4101   -6.5314   31.1812 H   0  0  0  0  0
    8.3683  -10.7483   32.4204 H   0  0  0  0  0
    6.6211  -10.5020   32.2584 H   0  0  0  0  0
    7.2234  -11.3574   34.4966 H   0  0  0  0  0
    5.4373   -9.3452   33.9694 H   0  0  0  0  0
    4.7970   -9.6676   36.1616 H   0  0  0  0  0
    6.8289   -7.4195   34.5952 H   0  0  0  0  0
    6.3989   -6.9291   36.7251 H   0  0  0  0  0
    8.1161   -9.0771   36.8075 H   0  0  0  0  0
    8.7444   -6.7527   33.7453 H   0  0  0  0  0
   11.9473   -7.3711   40.6336 H   0  0  0  0  0
    9.6136   -8.6271   38.2629 H   0  0  0  0  0
  1  2  1  0  0  0
  1  3  1  0  0  0
  1  4  2  0  0  0
  1  5  1  0  0  0
  5  6  1  0  0  0
  6  7  2  0  0  0
  6  8  1  0  0  0
  6  9  1  0  0  0
  9 10  1  0  0  0
 10 11  1  0  0  0
 11 12  1  0  0  0
 11 13  1  0  0  0
 12 17  1  0  0  0
 13 14  1  0  0  0
 13 15  1  0  0  0
 15 16  1  0  0  0
 15 17  1  0  0  0
 17 18  1  0  0  0
 18 19  4  0  0  0
 18 28  4  0  0  0
 19 20  4  0  0  0
 20 21  4  0  0  0
 21 22  1  0  0  0
 21 28  4  0  0  0
 22 23  2  0  0  0
 22 24  1  0  0  0
 24 25  4  0  0  0
 25 26  2  0  0  0
 25 27  1  0  0  0
 27 28  1  0  0  0
  2 29  1  0  0  0
  3 30  1  0  0  0
  8 31  1  0  0  0
 10 32  1  0  0  0
 10 33  1  0  0  0
 11 34  1  0  0  0
 13 35  1  0  0  0
 14 36  1  0  0  0
 15 37  1  0  0  0
 16 38  1  0  0  0
 17 39  1  0  0  0
 19 40  1  0  0  0
 26 41  1  0  0  0
 27 42  1  0  0  0
M  END
$$$$
