5h5o_ligand
  -I-interpret- 

 34 37  0  0  0  0  0  0  0  0999 V2000
    2.7150  -18.7850   10.4430 P   0  0  0  0  0
    1.3640  -18.1820   10.6310 O   0  0  0  0  0
    3.2440  -19.7350    9.4150 O   0  0  0  0  0
    2.8420  -19.2130   11.6710 O   0  0  0  0  0
    4.1540  -19.6410   12.0470 C   0  0  0  0  0
    4.9750  -18.3850   11.9280 C   0  0  0  0  0
    6.3570  -18.3840   12.1800 O   0  0  0  0  0
    4.8420  -17.7640   10.5720 C   0  0  0  0  0
    3.4360  -17.5320   10.2900 O   0  0  0  0  0
    5.7650  -16.5880   10.7360 C   0  0  0  0  0
    5.1740  -15.3710   11.1980 O   0  0  0  0  0
    6.7690  -17.0790   11.7910 C   0  0  0  0  0
    8.2060  -17.4260   11.5290 N   0  0  0  0  0
    9.2350  -17.0200   12.2820 C   0  0  0  0  0
   10.4070  -17.4770   11.8080 N   0  0  0  0  0
   10.1540  -18.1950   10.7290 C   0  0  0  0  0
   10.9560  -18.9610    9.7390 C   0  0  0  0  0
   12.1850  -19.0080    9.8600 O   0  0  0  0  0
   10.3140  -19.5920    8.7170 N   0  0  0  0  0
    8.9680  -19.5470    8.5750 C   0  0  0  0  0
    8.3910  -20.1940    7.5410 N   0  0  0  0  0
    8.1570  -18.8540    9.4590 N   0  0  0  0  0
    8.6940  -18.1760   10.5260 C   0  0  0  0  0
    4.1692  -19.9169    9.5951 H   0  0  0  0  0
    4.5285  -20.4484   11.4178 H   0  0  0  0  0
    4.1848  -20.0692   13.0489 H   0  0  0  0  0
    4.5249  -17.8455   12.7613 H   0  0  0  0  0
    5.1282  -18.3323    9.6870 H   0  0  0  0  0
    6.1698  -16.3171    9.7609 H   0  0  0  0  0
    5.8506  -14.6933   11.2651 H   0  0  0  0  0
    6.7537  -16.1898   12.4212 H   0  0  0  0  0
    9.1352  -16.3958   13.1700 H   0  0  0  0  0
    8.9677  -20.7099    6.8765 H   0  0  0  0  0
    7.1472  -18.8472    9.3155 H   0  0  0  0  0
  1  2  2  0  0  0
  1  3  1  0  0  0
  1  4  1  0  0  0
  1  9  1  0  0  0
  4  5  1  0  0  0
  5  6  1  0  0  0
  6  7  1  0  0  0
  6  8  1  0  0  0
  7 12  1  0  0  0
  8  9  1  0  0  0
  8 10  1  0  0  0
 10 11  1  0  0  0
 10 12  1  0  0  0
 12 13  1  0  0  0
 13 14  4  0  0  0
 13 23  4  0  0  0
 14 15  4  0  0  0
 15 16  4  0  0  0
 16 17  1  0  0  0
 16 23  4  0  0  0
 17 18  2  0  0  0
 17 19  1  0  0  0
 19 20  4  0  0  0
 20 21  2  0  0  0
 20 22  1  0  0  0
 22 23  1  0  0  0
  3 24  1  0  0  0
  5 25  1  0  0  0
  5 26  1  0  0  0
  6 27  1  0  0  0
  8 28  1  0  0  0
 10 29  1  0  0  0
 11 30  1  0  0  0
 12 31  1  0  0  0
 14 32  1  0  0  0
 21 33  1  0  0  0
 22 34  1  0  0  0
M  END
$$$$
