5hbn_ligand
  -I-interpret- 

 31 30  0  0  0  0  0  0  0  0999 V2000
   22.1890   27.4970    8.3830 P   0  0  0  0  0
   25.4120   26.2620   15.2920 N   0  3  0  0  0
   25.4230   27.4320   14.4660 C   0  0  0  0  0
   24.6160   27.1440   13.2220 C   0  0  0  0  0
   25.4000   26.2780   12.2680 C   0  0  0  0  0
   25.8490   27.0790   11.0740 C   0  0  0  0  0
   24.7320   27.2440   10.2090 N   0  0  0  0  0
   24.8900   27.2340    8.8160 C   0  0  0  0  0
   26.0810   27.0770    8.3230 N   0  0  0  0  0
   23.7730   27.3680    7.9360 N   0  0  0  0  0
   21.5470   26.1600    8.0690 O   0  0  0  0  0
   21.6080   28.5570    7.4810 O   0  0  0  0  0
   22.0190   27.8420    9.8330 O   0  0  0  0  0
   24.8510   28.6530   15.1620 C   0  0  0  0  0
   23.7520   29.1680   14.7890 O   0  0  0  0  0
   25.4980   29.1780   16.1050 O   0  0  0  0  0
   25.8064   25.4773   14.7732 H   0  0  0  0  0
   25.9698   26.4327   16.1287 H   0  0  0  0  0
   24.4520   26.0457   15.5603 H   0  0  0  0  0
   26.4614   27.6613   14.2266 H   0  0  0  0  0
   24.3790   28.0869   12.7291 H   0  0  0  0  0
   23.7041   26.6192   13.5067 H   0  0  0  0  0
   24.7636   25.4614   11.9271 H   0  0  0  0  0
   26.2781   25.8891   12.7835 H   0  0  0  0  0
   26.6541   26.5600   10.5540 H   0  0  0  0  0
   26.2248   28.0512   11.3929 H   0  0  0  0  0
   23.8021   27.3715   10.6082 H   0  0  0  0  0
   26.2151   27.0499    7.3122 H   0  0  0  0  0
   21.6674   25.9593    7.1380 H   0  0  0  0  0
   21.7359   28.3010    6.5646 H   0  0  0  0  0
   23.3875   28.6525   14.0658 H   0  0  0  0  0
 10  1  1  0  0  0
  1 11  1  0  0  0
  1 12  1  0  0  0
  1 13  2  0  0  0
  3  2  1  0  0  0
  4  3  1  0  0  0
  3 14  1  0  0  0
  5  4  1  0  0  0
  6  5  1  0  0  0
  7  6  1  0  0  0
  8  7  1  0  0  0
  8  9  2  0  0  0
  8 10  4  0  0  0
 14 15  1  0  0  0
 14 16  2  0  0  0
  2 17  1  0  0  0
  2 18  1  0  0  0
  2 19  1  0  0  0
  3 20  1  0  0  0
  4 21  1  0  0  0
  4 22  1  0  0  0
  5 23  1  0  0  0
  5 24  1  0  0  0
  6 25  1  0  0  0
  6 26  1  0  0  0
  7 27  1  0  0  0
  9 28  1  0  0  0
 11 29  1  0  0  0
 12 30  1  0  0  0
 15 31  1  0  0  0
M  END
$$$$
