5hyx_ligand
  -I-interpret- 

203209  0  0  0  0  0  0  0  0999 V2000
   49.1360   89.5510  -43.8520 N   0  3  0  0  0
   48.8670   88.3180  -43.1480 C   0  0  0  0  0
   47.5550   87.8420  -43.7830 C   0  0  0  0  0
   46.9120   86.9620  -43.2850 O   0  0  0  0  0
   48.6570   88.5460  -41.6320 C   0  0  0  0  0
   49.9800   88.5410  -40.8050 C   0  0  0  0  0
   51.0640   88.8770  -41.3570 O   0  0  0  0  0
   49.9590   88.2040  -39.5680 O   0  0  0  0  0
   47.1280   88.4280  -44.8950 N   0  0  0  0  0
   45.6940   88.4070  -45.2200 C   0  0  0  0  0
   45.0380   89.3150  -44.1570 C   0  0  0  0  0
   45.4230   89.3850  -42.9800 O   0  0  0  0  0
   45.0490   87.0260  -45.5550 C   0  0  0  0  0
   44.4740   86.1370  -44.4300 C   0  0  0  0  0
   43.1720   86.2930  -43.9660 C   0  0  0  0  0
   45.2040   85.0740  -43.9230 C   0  0  0  0  0
   42.6620   85.4570  -42.9830 C   0  0  0  0  0
   44.7170   84.2570  -42.9370 C   0  0  0  0  0
   43.4440   84.4400  -42.4730 C   0  0  0  0  0
   42.9980   83.6490  -41.5470 O   0  0  0  0  0
   42.1300   82.3680  -41.9320 P   0  0  0  0  0
   41.2280   82.6260  -43.1440 O   0  0  0  0  0
   43.0880   81.2890  -42.2230 O   0  0  0  0  0
   41.2610   81.9950  -40.7460 O   0  0  0  0  0
   44.0650   90.0970  -44.5920 N   0  0  0  0  0
   43.6370   91.1310  -43.6990 C   0  0  0  0  0
   42.8430   90.4690  -42.5840 C   0  0  0  0  0
   42.3000   89.3810  -42.7780 O   0  0  0  0  0
   42.8260   92.1980  -44.4130 C   0  0  0  0  0
   43.4740   92.6470  -45.5840 O   0  0  0  0  0
   42.7920   91.1060  -41.4180 N   0  0  0  0  0
   41.8120   90.7320  -40.4110 C   0  0  0  0  0
   40.4300   91.0020  -40.9640 C   0  0  0  0  0
   40.2800   91.7870  -41.8970 O   0  0  0  0  0
   42.0170   91.5710  -39.1570 C   0  0  0  0  0
   43.1880   91.0980  -38.3220 C   0  0  0  0  0
   43.6590   89.9680  -38.4560 O   0  0  0  0  0
   43.6570   91.9620  -37.4450 N   0  0  0  0  0
   39.4100   90.3530  -40.4070 N   0  0  0  0  0
   38.0560   90.7060  -40.8510 C   0  0  0  0  0
   37.7590   92.1940  -40.6450 C   0  0  0  0  0
   38.2670   92.8030  -39.7030 O   0  0  0  0  0
   37.1530   89.8480  -39.9550 C   0  0  0  0  0
   38.0340   89.3910  -38.8120 C   0  0  0  0  0
   39.4140   89.3150  -39.3610 C   0  0  0  0  0
   36.9570   92.7690  -41.5370 N   0  0  0  0  0
   36.5880   94.1710  -41.4670 C   0  0  0  0  0
   35.2120   94.4030  -42.0560 C   0  0  0  0  0
   34.6920   93.5780  -42.8060 O   0  0  0  0  0
   34.6000   95.5230  -41.7080 N   0  0  0  0  0
   33.3140   95.8650  -42.2900 C   0  0  0  0  0
   33.5770   96.6880  -43.5470 C   0  0  0  0  0
   34.7280   97.0430  -43.8340 O   0  0  0  0  0
   32.4540   96.6570  -41.2860 C   0  0  0  0  0
   32.9860   98.0230  -40.9710 C   0  0  0  0  0
   32.2730   98.9450  -40.2350 N   0  0  0  0  0
   34.1540   98.6300  -41.2990 C   0  0  0  0  0
   32.9740  100.0600  -40.1280 C   0  0  0  0  0
   34.1210   99.8940  -40.7620 N   0  0  0  0  0
   32.5080   96.9960  -44.2780 N   0  0  0  0  0
   32.5770   97.8840  -45.4280 C   0  0  0  0  0
   33.0510   99.2500  -44.9650 C   0  0  0  0  0
   32.4400   99.8460  -44.0830 O   0  0  0  0  0
   31.1930   98.0280  -46.0290 C   0  0  0  0  0
   31.1110   99.0590  -47.1040 C   0  0  0  0  0
   30.5850  100.3160  -46.8910 N   0  0  0  0  0
   31.4840   99.0200  -48.4070 C   0  0  0  0  0
   30.6350  101.0060  -48.0160 C   0  0  0  0  0
   31.1750  100.2420  -48.9490 N   0  0  0  0  0
   34.1460   99.7500  -45.5490 N   0  0  0  0  0
   34.6320  101.0890  -45.2060 C   0  0  0  0  0
   33.5630  102.1310  -45.5280 C   0  0  0  0  0
   33.0170  102.1290  -46.6310 O   0  0  0  0  0
   35.8310  101.2740  -46.1450 C   0  0  0  0  0
   36.2070   99.8970  -46.5780 C   0  0  0  0  0
   34.9190   99.1500  -46.6480 C   0  0  0  0  0
   33.2580  103.0070  -44.5810 N   0  0  0  0  0
   32.1950  103.9640  -44.8100 C   0  0  0  0  0
   32.6950  105.1620  -45.6040 C   0  0  0  0  0
   33.8290  105.6020  -45.4580 O   0  0  0  0  0
   31.6910  104.3690  -43.4410 C   0  0  0  0  0
   32.3080  103.3680  -42.4930 C   0  0  0  0  0
   33.5980  102.8960  -43.1550 C   0  0  0  0  0
   32.5580  103.9930  -41.2600 O   0  0  0  0  0
   31.8310  105.6620  -46.4760 N   0  0  0  0  0
   32.1790  106.7730  -47.3310 C   0  0  0  0  0
   31.2090  107.9220  -47.0720 C   0  0  0  0  0
   30.0160  107.7110  -46.8280 O   0  0  0  0  0
   32.1510  106.3240  -48.7900 C   0  0  0  0  0
   32.9000  105.0130  -49.0440 C   0  0  0  0  0
   32.7080  104.4980  -50.4800 C   0  0  0  0  0
   31.9420  103.2460  -50.5440 N   0  0  0  0  0
   31.8080  102.4930  -51.6380 C   0  0  0  0  0
   32.3920  102.8510  -52.7760 N   0  0  0  0  0
   31.0920  101.3750  -51.5990 N   0  0  0  0  0
   31.7290  109.1410  -47.1040 N   0  0  0  0  0
   30.9050  110.3220  -46.9020 C   0  0  0  0  0
   31.3510  111.3830  -47.8970 C   0  0  0  0  0
   32.3280  111.1930  -48.6090 O   0  0  0  0  0
   31.0640  110.8390  -45.4690 C   0  0  0  0  0
   32.4690  111.2230  -45.1240 C   0  0  0  0  0
   33.0900  112.3420  -45.6490 N   0  0  0  0  0
   33.3920  110.6180  -44.3360 C   0  0  0  0  0
   34.3240  112.4180  -45.1830 C   0  0  0  0  0
   34.5310  111.3830  -44.3800 N   0  0  0  0  0
   30.6660  112.5180  -47.9030 N   0  0  0  0  0
   30.9270  113.5630  -48.8850 C   0  0  0  0  0
   31.9590  114.6000  -48.4500 C   0  0  0  0  0
   32.5870  114.4830  -47.3820 O   0  0  0  0  0
   29.6140  114.2360  -49.2780 C   0  0  0  0  0
   28.6880  113.2830  -50.0020 C   0  0  0  0  0
   28.7490  113.1610  -51.2200 O   0  0  0  0  0
   27.8540  112.5710  -49.2510 N   0  0  0  0  0
   32.1820  115.5730  -49.1780 O   0  0  0  0  0
   49.2672   89.3531  -44.8440 H   0  0  0  0  0
   48.3485   90.1882  -43.7324 H   0  0  0  0  0
   49.9815   89.9790  -43.4748 H   0  0  0  0  0
   49.6924   87.6106  -43.2284 H   0  0  0  0  0
   48.0398   87.7270  -41.2626 H   0  0  0  0  0
   48.2020   89.5291  -41.5112 H   0  0  0  0  0
   49.0607   87.9803  -39.3137 H   0  0  0  0  0
   47.7896   88.8894  -45.5193 H   0  0  0  0  0
   45.4980   88.8111  -46.2132 H   0  0  0  0  0
   45.8694   86.4393  -45.9684 H   0  0  0  0  0
   44.1838   87.2753  -46.1693 H   0  0  0  0  0
   42.5443   87.0821  -44.3799 H   0  0  0  0  0
   46.1997   84.8812  -44.3223 H   0  0  0  0  0
   41.6466   85.6029  -42.6144 H   0  0  0  0  0
   45.3415   83.4647  -42.5243 H   0  0  0  0  0
   40.6104   83.3313  -42.9374 H   0  0  0  0  0
   40.6420   82.7068  -40.5679 H   0  0  0  0  0
   43.6429   89.9708  -45.5120 H   0  0  0  0  0
   44.5021   91.6507  -43.2871 H   0  0  0  0  0
   42.7050   93.0465  -43.7396 H   0  0  0  0  0
   41.8645   91.7686  -44.6947 H   0  0  0  0  0
   42.9355   93.3187  -46.0088 H   0  0  0  0  0
   43.4469   91.8646  -41.2280 H   0  0  0  0  0
   41.9242   89.6772  -40.1603 H   0  0  0  0  0
   41.1168   91.4880  -38.5481 H   0  0  0  0  0
   42.2209   92.5952  -39.4694 H   0  0  0  0  0
   44.4401   91.7047  -36.8442 H   0  0  0  0  0
   43.2370   92.8882  -37.3668 H   0  0  0  0  0
   37.9101   90.5264  -41.9162 H   0  0  0  0  0
   36.7365   89.0017  -40.5013 H   0  0  0  0  0
   36.2936   90.4139  -39.5953 H   0  0  0  0  0
   37.7095   88.4246  -38.4262 H   0  0  0  0  0
   37.9814   90.0841  -37.9723 H   0  0  0  0  0
   40.1804   89.4803  -38.6037 H   0  0  0  0  0
   39.6620   88.3263  -39.7469 H   0  0  0  0  0
   36.5868   92.2024  -42.3001 H   0  0  0  0  0
   37.3136   94.7514  -42.0368 H   0  0  0  0  0
   36.5755   94.4765  -40.4208 H   0  0  0  0  0
   35.0328   96.1486  -41.0285 H   0  0  0  0  0
   32.7611   94.9601  -42.5423 H   0  0  0  0  0
   32.4425   96.0919  -40.3540 H   0  0  0  0  0
   31.4705   96.7893  -41.7368 H   0  0  0  0  0
   34.9673   98.1957  -41.8804 H   0  0  0  0  0
   32.6593  100.9633  -39.6054 H   0  0  0  0  0
   31.6062   96.5940  -44.0220 H   0  0  0  0  0
   33.2645   97.4765  -46.1693 H   0  0  0  0  0
   30.5205   98.3370  -45.2288 H   0  0  0  0  0
   30.9301   97.0692  -46.4759 H   0  0  0  0  0
   31.9423   98.1778  -48.9254 H   0  0  0  0  0
   30.2897  102.0309  -48.1517 H   0  0  0  0  0
   34.8817  101.1998  -44.1508 H   0  0  0  0  0
   36.6584  101.7777  -45.6452 H   0  0  0  0  0
   35.5807  101.9080  -46.9956 H   0  0  0  0  0
   36.9067   99.4319  -45.8836 H   0  0  0  0  0
   36.7239   99.9021  -47.5376 H   0  0  0  0  0
   34.4255   99.2373  -47.6160 H   0  0  0  0  0
   35.0432   98.0720  -46.5453 H   0  0  0  0  0
   31.3916  103.5300  -45.4053 H   0  0  0  0  0
   30.6022  104.3598  -43.3896 H   0  0  0  0  0
   31.9716  105.3921  -43.1909 H   0  0  0  0  0
   31.6532  102.5189  -42.2972 H   0  0  0  0  0
   34.4725  103.4808  -42.8696 H   0  0  0  0  0
   33.8978  101.8915  -42.8563 H   0  0  0  0  0
   32.9503  103.3592  -40.6550 H   0  0  0  0  0
   30.8992  105.2529  -46.5448 H   0  0  0  0  0
   33.1880  107.1227  -47.1124 H   0  0  0  0  0
   32.6409  107.0991  -49.3793 H   0  0  0  0  0
   31.1079  106.1617  -49.0614 H   0  0  0  0  0
   32.5059  104.2612  -48.3602 H   0  0  0  0  0
   33.9634  105.1966  -48.8906 H   0  0  0  0  0
   33.6959  104.3043  -50.8979 H   0  0  0  0  0
   32.1523  105.2556  -51.0326 H   0  0  0  0  0
   31.4796  102.9296  -49.6917 H   0  0  0  0  0
   32.2881  102.2695  -53.6075 H   0  0  0  0  0
   32.9444  103.7074  -52.8184 H   0  0  0  0  0
   30.6413  101.0881  -50.7301 H   0  0  0  0  0
   32.7285  109.2529  -47.2740 H   0  0  0  0  0
   29.8539  110.0790  -47.0576 H   0  0  0  0  0
   30.7704  110.0334  -44.7961 H   0  0  0  0  0
   30.4476  111.7329  -45.3734 H   0  0  0  0  0
   33.2549  109.6953  -43.7722 H   0  0  0  0  0
   35.0481  113.1980  -45.4183 H   0  0  0  0  0
   29.9384  112.6636  -47.2032 H   0  0  0  0  0
   31.3731  113.0673  -49.7472 H   0  0  0  0  0
   32.3047  113.6834  -46.9320 H   0  0  0  0  0
   29.8415  115.0664  -49.9464 H   0  0  0  0  0
   29.1161  114.5725  -48.3686 H   0  0  0  0  0
   27.2311  111.8902  -49.6856 H   0  0  0  0  0
   27.8369  112.7054  -48.2400 H   0  0  0  0  0
  1  2  1  0  0  0
  2  3  1  0  0  0
  2  5  1  0  0  0
  3  4  2  0  0  0
  3  9  1  0  0  0
  5  6  1  0  0  0
  6  7  2  0  0  0
  6  8  1  0  0  0
  9 10  1  0  0  0
 10 11  1  0  0  0
 10 13  1  0  0  0
 11 12  2  0  0  0
 11 25  1  0  0  0
 13 14  1  0  0  0
 14 15  4  0  0  0
 14 16  4  0  0  0
 15 17  4  0  0  0
 16 18  4  0  0  0
 17 19  4  0  0  0
 18 19  4  0  0  0
 19 20  1  0  0  0
 20 21  1  0  0  0
 21 22  1  0  0  0
 21 23  2  0  0  0
 21 24  1  0  0  0
 25 26  1  0  0  0
 26 27  1  0  0  0
 26 29  1  0  0  0
 27 28  2  0  0  0
 27 31  1  0  0  0
 29 30  1  0  0  0
 31 32  1  0  0  0
 32 33  1  0  0  0
 32 35  1  0  0  0
 33 34  2  0  0  0
 33 39  1  0  0  0
 35 36  1  0  0  0
 36 37  2  0  0  0
 36 38  1  0  0  0
 39 40  1  0  0  0
 39 45  1  0  0  0
 40 41  1  0  0  0
 40 43  1  0  0  0
 41 42  2  0  0  0
 41 46  1  0  0  0
 43 44  1  0  0  0
 44 45  1  0  0  0
 46 47  1  0  0  0
 47 48  1  0  0  0
 48 49  2  0  0  0
 48 50  1  0  0  0
 50 51  1  0  0  0
 51 52  1  0  0  0
 51 54  1  0  0  0
 52 53  2  0  0  0
 52 60  1  0  0  0
 54 55  1  0  0  0
 55 56  4  0  0  0
 55 57  4  0  0  0
 56 58  4  0  0  0
 57 59  4  0  0  0
 58 59  4  0  0  0
 60 61  1  0  0  0
 61 62  1  0  0  0
 61 64  1  0  0  0
 62 63  2  0  0  0
 62 70  1  0  0  0
 64 65  1  0  0  0
 65 66  4  0  0  0
 65 67  4  0  0  0
 66 68  4  0  0  0
 67 69  4  0  0  0
 68 69  4  0  0  0
 70 71  1  0  0  0
 70 76  1  0  0  0
 71 72  1  0  0  0
 71 74  1  0  0  0
 72 73  2  0  0  0
 72 77  1  0  0  0
 74 75  1  0  0  0
 75 76  1  0  0  0
 77 78  1  0  0  0
 77 83  1  0  0  0
 78 79  1  0  0  0
 78 81  1  0  0  0
 79 80  2  0  0  0
 79 85  1  0  0  0
 81 82  1  0  0  0
 82 83  1  0  0  0
 82 84  1  0  0  0
 85 86  1  0  0  0
 86 87  1  0  0  0
 86 89  1  0  0  0
 87 88  2  0  0  0
 87 96  1  0  0  0
 89 90  1  0  0  0
 90 91  1  0  0  0
 91 92  1  0  0  0
 92 93  1  0  0  0
 93 94  1  0  0  0
 93 95  2  0  0  0
 96 97  1  0  0  0
 97 98  1  0  0  0
 97100  1  0  0  0
 98 99  2  0  0  0
 98106  1  0  0  0
100101  1  0  0  0
101102  4  0  0  0
101103  4  0  0  0
102104  4  0  0  0
103105  4  0  0  0
104105  4  0  0  0
106107  1  0  0  0
107108  1  0  0  0
107110  1  0  0  0
108109  1  0  0  0
108114  2  0  0  0
110111  1  0  0  0
111112  2  0  0  0
111113  1  0  0  0
  1115  1  0  0  0
  1116  1  0  0  0
  1117  1  0  0  0
  2118  1  0  0  0
  5119  1  0  0  0
  5120  1  0  0  0
  8121  1  0  0  0
  9122  1  0  0  0
 10123  1  0  0  0
 13124  1  0  0  0
 13125  1  0  0  0
 15126  1  0  0  0
 16127  1  0  0  0
 17128  1  0  0  0
 18129  1  0  0  0
 22130  1  0  0  0
 24131  1  0  0  0
 25132  1  0  0  0
 26133  1  0  0  0
 29134  1  0  0  0
 29135  1  0  0  0
 30136  1  0  0  0
 31137  1  0  0  0
 32138  1  0  0  0
 35139  1  0  0  0
 35140  1  0  0  0
 38141  1  0  0  0
 38142  1  0  0  0
 40143  1  0  0  0
 43144  1  0  0  0
 43145  1  0  0  0
 44146  1  0  0  0
 44147  1  0  0  0
 45148  1  0  0  0
 45149  1  0  0  0
 46150  1  0  0  0
 47151  1  0  0  0
 47152  1  0  0  0
 50153  1  0  0  0
 51154  1  0  0  0
 54155  1  0  0  0
 54156  1  0  0  0
 57157  1  0  0  0
 58158  1  0  0  0
 60159  1  0  0  0
 61160  1  0  0  0
 64161  1  0  0  0
 64162  1  0  0  0
 67163  1  0  0  0
 68164  1  0  0  0
 71165  1  0  0  0
 74166  1  0  0  0
 74167  1  0  0  0
 75168  1  0  0  0
 75169  1  0  0  0
 76170  1  0  0  0
 76171  1  0  0  0
 78172  1  0  0  0
 81173  1  0  0  0
 81174  1  0  0  0
 82175  1  0  0  0
 83176  1  0  0  0
 83177  1  0  0  0
 84178  1  0  0  0
 85179  1  0  0  0
 86180  1  0  0  0
 89181  1  0  0  0
 89182  1  0  0  0
 90183  1  0  0  0
 90184  1  0  0  0
 91185  1  0  0  0
 91186  1  0  0  0
 92187  1  0  0  0
 94188  1  0  0  0
 94189  1  0  0  0
 95190  1  0  0  0
 96191  1  0  0  0
 97192  1  0  0  0
100193  1  0  0  0
100194  1  0  0  0
103195  1  0  0  0
104196  1  0  0  0
106197  1  0  0  0
107198  1  0  0  0
109199  1  0  0  0
110200  1  0  0  0
110201  1  0  0  0
113202  1  0  0  0
113203  1  0  0  0
M  END
$$$$
