5ipc_ligand
  -I-interpret- 

 57 61  0  0  0  0  0  0  0  0999 V2000
  -29.6950    6.8620  -28.4360 C   0  0  0  0  0
  -29.2010    4.1980  -25.9000 C   0  0  0  0  0
  -28.7470    5.2130  -26.9490 C   0  0  0  0  0
  -32.1840    7.8030  -24.2410 C   0  0  0  0  0
  -34.0790    8.5920  -22.4810 C   0  0  0  0  0
  -32.3180    5.3760  -23.7230 N   0  0  0  0  0
  -31.5010    3.8650  -23.9580 P   0  0  0  0  0
  -30.2940    3.8020  -23.0490 O   0  0  0  0  0
  -32.5240    2.7670  -23.8020 O   0  0  0  0  0
  -30.9270    3.8400  -25.9470 S   0  0  0  0  0
  -29.4900    6.5470  -26.9540 C   0  0  0  0  0
  -28.8590    5.7870  -29.1100 C   0  0  0  0  0
  -28.9390    4.6690  -28.2500 O   0  0  0  0  0
  -29.3780    5.4350  -30.4350 N   0  0  0  0  0
  -30.6640    5.2250  -30.7680 C   0  0  0  0  0
  -30.7540    4.9270  -32.0870 N   0  0  0  0  0
  -29.4990    4.9350  -32.5870 C   0  0  0  0  0
  -28.5980    5.2640  -31.4850 C   0  0  0  0  0
  -27.2610    5.3530  -31.6670 N   0  0  0  0  0
  -26.7750    5.1150  -32.9050 C   0  0  0  0  0
  -27.5370    4.8130  -33.9780 N   0  0  0  0  0
  -28.8680    4.6990  -33.8980 C   0  0  0  0  0
  -25.3270    5.2030  -33.0900 N   0  0  0  0  0
  -29.5510    4.4280  -34.9190 O   0  0  0  0  0
  -28.7020    7.5260  -26.2520 O   0  0  0  0  0
  -29.2760    8.1690  -28.8470 O   0  0  0  0  0
  -31.5890    6.6130  -23.4900 C   0  0  0  0  0
  -33.5980    8.1330  -23.8060 C   0  0  0  0  0
  -34.7440    8.1040  -24.6000 C   0  0  0  0  0
  -35.5360    8.7830  -22.6210 C   0  0  0  0  0
  -35.8510    8.4760  -23.8910 N   0  0  0  0  0
  -33.4390    8.8260  -21.2760 C   0  0  0  0  0
  -34.2120    9.2570  -20.2000 C   0  0  0  0  0
  -35.5910    9.4410  -20.3150 C   0  0  0  0  0
  -36.2610    9.2100  -21.5150 C   0  0  0  0  0
  -30.7538    6.8634  -28.6950 H   0  0  0  0  0
  -28.9866    4.6271  -24.9212 H   0  0  0  0  0
  -28.6722    3.2664  -26.1017 H   0  0  0  0  0
  -27.7071    5.4084  -26.6872 H   0  0  0  0  0
  -32.2145    7.5452  -25.2996 H   0  0  0  0  0
  -31.5611    8.6725  -24.0310 H   0  0  0  0  0
  -33.3374    5.3982  -23.7488 H   0  0  0  0  0
  -29.7153    4.5450  -23.2353 H   0  0  0  0  0
  -30.4524    6.5336  -26.4424 H   0  0  0  0  0
  -27.8370    6.1316  -29.2679 H   0  0  0  0  0
  -31.5074    5.2854  -30.0802 H   0  0  0  0  0
  -26.6394    5.5921  -30.8945 H   0  0  0  0  0
  -24.9195    5.0381  -34.0104 H   0  0  0  0  0
  -29.1646    8.3672  -26.2520 H   0  0  0  0  0
  -29.4420    8.2763  -29.7864 H   0  0  0  0  0
  -31.6386    6.8333  -22.4236 H   0  0  0  0  0
  -30.5686    6.4706  -23.8460 H   0  0  0  0  0
  -34.7552    7.8206  -25.6524 H   0  0  0  0  0
  -32.3641    8.6777  -21.1723 H   0  0  0  0  0
  -33.7276    9.4556  -19.2439 H   0  0  0  0  0
  -36.1575    9.7734  -19.4451 H   0  0  0  0  0
  -37.3381    9.3620  -21.5850 H   0  0  0  0  0
 11  1  1  0  0  0
  1 12  1  0  0  0
  1 26  1  0  0  0
  2  3  1  0  0  0
 10  2  1  0  0  0
  3 11  1  0  0  0
  3 13  1  0  0  0
 27  4  1  0  0  0
  4 28  1  0  0  0
 28  5  4  0  0  0
  5 30  4  0  0  0
  5 32  4  0  0  0
  7  6  1  0  0  0
  6 27  1  0  0  0
  7  8  1  0  0  0
  7  9  2  0  0  0
  7 10  1  0  0  0
 11 25  1  0  0  0
 12 13  1  0  0  0
 12 14  1  0  0  0
 14 15  4  0  0  0
 14 18  4  0  0  0
 15 16  4  0  0  0
 16 17  4  0  0  0
 17 18  4  0  0  0
 17 22  1  0  0  0
 18 19  1  0  0  0
 19 20  1  0  0  0
 20 21  4  0  0  0
 20 23  2  0  0  0
 21 22  1  0  0  0
 22 24  2  0  0  0
 28 29  4  0  0  0
 29 31  4  0  0  0
 30 31  4  0  0  0
 30 35  4  0  0  0
 32 33  4  0  0  0
 33 34  4  0  0  0
 34 35  4  0  0  0
  1 36  1  0  0  0
  2 37  1  0  0  0
  2 38  1  0  0  0
  3 39  1  0  0  0
  4 40  1  0  0  0
  4 41  1  0  0  0
  6 42  1  0  0  0
  8 43  1  0  0  0
 11 44  1  0  0  0
 12 45  1  0  0  0
 15 46  1  0  0  0
 19 47  1  0  0  0
 23 48  1  0  0  0
 25 49  1  0  0  0
 26 50  1  0  0  0
 27 51  1  0  0  0
 27 52  1  0  0  0
 29 53  1  0  0  0
 32 54  1  0  0  0
 33 55  1  0  0  0
 34 56  1  0  0  0
 35 57  1  0  0  0
M  END
$$$$
