5irr_ligand
  -I-interpret- 

 47 49  0  0  0  0  0  0  0  0999 V2000
   21.6990   28.9530   83.7150 P   0  0  0  0  0
   23.1830   29.4330   84.1590 O   0  0  0  0  0
   20.7550   30.2690   83.2610 S   0  0  0  0  0
   21.0070   28.2910   84.9100 O   0  0  0  0  0
   21.7820   27.9230   82.5780 O   0  0  0  0  0
   23.4330   30.3010   85.4870 P   0  0  0  0  0
   22.9280   31.6830   85.3630 O   0  0  0  0  0
   22.7740   29.6360   86.6150 O   0  0  0  0  0
   25.8390   29.2250   86.5810 P   0  0  0  0  0
   25.4160   27.8450   86.3080 O   0  0  0  0  0
   25.6670   29.5510   88.0120 O   0  0  0  0  0
   25.0220   30.2830   85.6820 O   0  0  0  0  0
   27.3450   29.5070   86.1030 O   0  0  0  0  0
   27.7270   29.2540   84.7670 C   0  0  0  0  0
   29.2240   29.4910   84.6100 C   0  0  0  0  0
   29.5390   30.7920   85.0680 O   0  0  0  0  0
   30.0560   28.5270   85.4280 C   0  0  0  0  0
   31.1690   28.1710   84.6510 O   0  0  0  0  0
   30.5720   29.3580   86.5830 C   0  0  0  0  0
   31.8420   28.9120   86.9940 O   0  0  0  0  0
   30.6400   30.7370   85.9560 C   0  0  0  0  0
   30.5850   31.7990   86.9820 N   0  0  0  0  0
   29.7780   31.8600   88.0800 C   0  0  0  0  0
   30.0580   32.9980   88.7580 N   0  0  0  0  0
   31.0460   33.6570   88.0910 C   0  0  0  0  0
   31.7120   34.8500   88.3230 C   0  0  0  0  0
   31.4140   35.5160   89.3160 O   0  0  0  0  0
   32.6990   35.2840   87.4490 N   0  0  0  0  0
   33.0310   34.5250   86.3300 C   0  0  0  0  0
   33.9710   34.9050   85.4660 N   0  0  0  0  0
   32.3480   33.3420   86.1230 N   0  0  0  0  0
   31.3880   32.9190   86.9780 C   0  0  0  0  0
   21.3180   30.8789   82.2218 H   0  0  0  0  0
   22.2138   28.3207   81.8184 H   0  0  0  0  0
   23.3613   32.1157   84.6237 H   0  0  0  0  0
   25.9485   30.4553   88.1691 H   0  0  0  0  0
   27.1824   29.9238   84.1015 H   0  0  0  0  0
   27.4955   28.2194   84.5138 H   0  0  0  0  0
   29.4535   29.3522   83.5535 H   0  0  0  0  0
   29.5017   27.6426   85.7421 H   0  0  0  0  0
   31.7190   27.5576   85.1439 H   0  0  0  0  0
   29.9563   29.3139   87.4813 H   0  0  0  0  0
   32.1484   29.4526   87.7258 H   0  0  0  0  0
   31.5804   30.9031   85.4305 H   0  0  0  0  0
   29.0326   31.1171   88.3640 H   0  0  0  0  0
   34.4755   35.7792   85.6130 H   0  0  0  0  0
   32.5727   32.7738   85.3062 H   0  0  0  0  0
  2  1  1  0  0  0
  1  3  1  0  0  0
  1  4  2  0  0  0
  1  5  1  0  0  0
  6  2  1  0  0  0
  6  7  1  0  0  0
  6  8  2  0  0  0
 12  6  1  0  0  0
  9 10  2  0  0  0
  9 11  1  0  0  0
  9 12  1  0  0  0
  9 13  1  0  0  0
 13 14  1  0  0  0
 14 15  1  0  0  0
 15 16  1  0  0  0
 15 17  1  0  0  0
 16 21  1  0  0  0
 17 18  1  0  0  0
 17 19  1  0  0  0
 19 20  1  0  0  0
 19 21  1  0  0  0
 21 22  1  0  0  0
 22 23  4  0  0  0
 22 32  4  0  0  0
 23 24  4  0  0  0
 24 25  4  0  0  0
 25 26  1  0  0  0
 25 32  4  0  0  0
 26 27  2  0  0  0
 26 28  1  0  0  0
 28 29  4  0  0  0
 29 30  2  0  0  0
 29 31  1  0  0  0
 31 32  1  0  0  0
  3 33  1  0  0  0
  5 34  1  0  0  0
  7 35  1  0  0  0
 11 36  1  0  0  0
 14 37  1  0  0  0
 14 38  1  0  0  0
 15 39  1  0  0  0
 17 40  1  0  0  0
 18 41  1  0  0  0
 19 42  1  0  0  0
 20 43  1  0  0  0
 21 44  1  0  0  0
 23 45  1  0  0  0
 30 46  1  0  0  0
 31 47  1  0  0  0
M  END
$$$$
