5izl_ligand
  -I-interpret- 

 49 51  0  0  0  0  0  0  0  0999 V2000
  -16.2560  -50.1710   26.4320 P   0  0  0  0  0
  -15.8110  -49.2940   25.3280 O   0  0  0  0  0
  -16.3640  -51.6790   25.8870 O   0  0  0  0  0
  -15.5080  -50.1760   27.7070 O   0  0  0  0  0
  -17.9850  -49.7850   26.7960 C   0  0  0  0  0
  -18.8730  -49.4360   25.2370 P   0  0  0  0  0
  -18.0150  -48.2650   24.5190 O   0  0  0  0  0
  -20.2770  -49.0210   25.4830 O   0  0  0  0  0
  -18.7340  -50.7500   24.3160 O   0  0  0  0  0
  -19.9320  -51.1720   23.3330 P   0  0  0  0  0
  -19.5340  -52.3850   22.5870 O   0  0  0  0  0
  -20.3880  -49.9760   22.5920 O   0  0  0  0  0
  -21.0850  -51.5830   24.3780 O   0  0  0  0  0
  -21.0730  -52.8790   24.9830 C   0  0  0  0  0
  -22.3720  -53.6130   24.6430 C   0  0  0  0  0
  -23.4660  -52.6850   24.6630 O   0  0  0  0  0
  -22.3220  -54.0920   23.2010 C   0  0  0  0  0
  -21.9800  -55.4850   23.1710 O   0  0  0  0  0
  -23.7460  -53.9080   22.7010 C   0  0  0  0  0
  -24.3010  -55.1860   22.3560 O   0  0  0  0  0
  -24.4890  -53.3390   23.8990 C   0  0  0  0  0
  -25.5000  -52.3450   23.4740 N   0  0  0  0  0
  -25.2460  -51.1120   23.0490 C   0  0  0  0  0
  -26.4080  -50.5330   22.7620 N   0  0  0  0  0
  -27.3800  -51.4080   23.0100 C   0  0  0  0  0
  -28.7020  -51.3090   22.8840 C   0  0  0  0  0
  -29.2180  -50.2700   22.4760 O   0  0  0  0  0
  -29.5110  -52.3970   23.2190 N   0  0  0  0  0
  -28.8950  -53.5610   23.6780 C   0  0  0  0  0
  -29.6260  -54.6220   24.0090 N   0  0  0  0  0
  -27.5610  -53.6000   23.7830 N   0  0  0  0  0
  -26.8160  -52.5340   23.4520 C   0  0  0  0  0
  -16.3967  -49.4063   24.5757 H   0  0  0  0  0
  -16.8488  -51.6847   25.0584 H   0  0  0  0  0
  -18.0331  -48.9106   27.4450 H   0  0  0  0  0
  -18.4494  -50.6349   27.2961 H   0  0  0  0  0
  -17.1158  -48.5699   24.3770 H   0  0  0  0  0
  -20.6081  -49.2796   23.2150 H   0  0  0  0  0
  -20.9874  -52.7742   26.0646 H   0  0  0  0  0
  -20.2242  -53.4486   24.6047 H   0  0  0  0  0
  -22.4916  -54.4272   25.3578 H   0  0  0  0  0
  -21.5881  -53.5551   22.6000 H   0  0  0  0  0
  -21.9488  -55.7861   22.2600 H   0  0  0  0  0
  -23.8074  -53.2682   21.8207 H   0  0  0  0  0
  -25.2000  -55.0685   22.0405 H   0  0  0  0  0
  -25.0208  -54.1110   24.4552 H   0  0  0  0  0
  -24.2605  -50.6563   22.9528 H   0  0  0  0  0
  -30.6421  -54.5867   23.9277 H   0  0  0  0  0
  -27.1059  -54.4491   24.1182 H   0  0  0  0  0
  1  2  1  0  0  0
  1  3  1  0  0  0
  1  4  2  0  0  0
  1  5  1  0  0  0
  5  6  1  0  0  0
  6  7  1  0  0  0
  6  8  2  0  0  0
  6  9  1  0  0  0
  9 10  1  0  0  0
 10 11  2  0  0  0
 10 12  1  0  0  0
 10 13  1  0  0  0
 13 14  1  0  0  0
 14 15  1  0  0  0
 15 16  1  0  0  0
 15 17  1  0  0  0
 16 21  1  0  0  0
 17 18  1  0  0  0
 17 19  1  0  0  0
 19 20  1  0  0  0
 19 21  1  0  0  0
 21 22  1  0  0  0
 22 23  4  0  0  0
 22 32  4  0  0  0
 23 24  4  0  0  0
 24 25  4  0  0  0
 25 26  1  0  0  0
 25 32  4  0  0  0
 26 27  2  0  0  0
 26 28  1  0  0  0
 28 29  4  0  0  0
 29 30  2  0  0  0
 29 31  1  0  0  0
 31 32  1  0  0  0
  2 33  1  0  0  0
  3 34  1  0  0  0
  5 35  1  0  0  0
  5 36  1  0  0  0
  7 37  1  0  0  0
 12 38  1  0  0  0
 14 39  1  0  0  0
 14 40  1  0  0  0
 15 41  1  0  0  0
 17 42  1  0  0  0
 18 43  1  0  0  0
 19 44  1  0  0  0
 20 45  1  0  0  0
 21 46  1  0  0  0
 23 47  1  0  0  0
 30 48  1  0  0  0
 31 49  1  0  0  0
M  END
$$$$
