5k1d_ligand
  -I-interpret- 

 37 39  0  0  0  0  0  0  0  0999 V2000
   -0.6490    1.8220   18.3920 P   0  0  0  0  0
    0.2930    1.0120   17.5020 O   0  0  0  0  0
   -0.0160    2.8760   19.2690 O   0  0  0  0  0
   -1.8930    2.3700   17.7250 O   0  0  0  0  0
   -1.1830    0.7330   19.4350 O   0  0  0  0  0
   -2.1560    1.0840   20.4160 C   0  0  0  0  0
   -1.9220    0.4040   21.7470 C   0  0  0  0  0
   -2.2880   -1.0010   21.6450 O   0  0  0  0  0
   -0.4780    0.4400   22.2540 C   0  0  0  0  0
   -0.4780    0.6430   23.6670 O   0  0  0  0  0
    0.0340   -0.9660   21.9300 C   0  0  0  0  0
    1.0940   -1.4040   22.7530 O   0  0  0  0  0
   -1.2270   -1.8000   22.1340 C   0  0  0  0  0
   -1.2490   -3.0830   21.4170 N   0  0  0  0  0
   -0.7730   -3.3220   20.1830 C   0  0  0  0  0
   -0.9870   -4.6190   19.8700 N   0  0  0  0  0
   -1.6060   -5.2000   20.9230 C   0  0  0  0  0
   -2.0730   -6.4940   21.1690 C   0  0  0  0  0
   -1.9320   -7.3940   20.3050 O   0  0  0  0  0
   -2.6750   -6.7690   22.3400 N   0  0  0  0  0
   -2.8300   -5.8140   23.2770 C   0  0  0  0  0
   -3.4340   -6.1260   24.4520 N   0  0  0  0  0
   -2.3840   -4.5460   23.0650 N   0  0  0  0  0
   -1.7800   -4.2200   21.8900 C   0  0  0  0  0
   -0.2164    0.3771   16.9931 H   0  0  0  0  0
   -2.2840    1.6899   17.1716 H   0  0  0  0  0
   -3.1309    0.7660   20.0466 H   0  0  0  0  0
   -2.0936    2.1603   20.5765 H   0  0  0  0  0
   -2.5345    0.9654   22.4525 H   0  0  0  0  0
    0.1253    1.2324   21.8110 H   0  0  0  0  0
    0.4272    0.6657   23.9859 H   0  0  0  0  0
    0.4737   -1.0318   20.9348 H   0  0  0  0  0
    1.3578   -2.2886   22.4894 H   0  0  0  0  0
   -1.2947   -2.0604   23.1903 H   0  0  0  0  0
   -0.2914   -2.5872   19.5379 H   0  0  0  0  0
   -3.7654   -7.0762   24.6185 H   0  0  0  0  0
   -2.5028   -3.8376   23.7892 H   0  0  0  0  0
  1  2  1  0  0  0
  1  3  2  0  0  0
  1  4  1  0  0  0
  1  5  1  0  0  0
  5  6  1  0  0  0
  6  7  1  0  0  0
  7  8  1  0  0  0
  7  9  1  0  0  0
  8 13  1  0  0  0
  9 10  1  0  0  0
  9 11  1  0  0  0
 11 12  1  0  0  0
 11 13  1  0  0  0
 13 14  1  0  0  0
 14 15  4  0  0  0
 14 24  4  0  0  0
 15 16  4  0  0  0
 16 17  4  0  0  0
 17 18  1  0  0  0
 17 24  4  0  0  0
 18 19  2  0  0  0
 18 20  1  0  0  0
 20 21  4  0  0  0
 21 22  2  0  0  0
 21 23  1  0  0  0
 23 24  1  0  0  0
  2 25  1  0  0  0
  4 26  1  0  0  0
  6 27  1  0  0  0
  6 28  1  0  0  0
  7 29  1  0  0  0
  9 30  1  0  0  0
 10 31  1  0  0  0
 11 32  1  0  0  0
 12 33  1  0  0  0
 13 34  1  0  0  0
 15 35  1  0  0  0
 22 36  1  0  0  0
 23 37  1  0  0  0
M  END
$$$$
