5kly_ligand
  -I-interpret- 

 57 61  0  0  0  0  0  0  0  0999 V2000
  -31.5690    6.7190  -23.2940 C   0  0  0  0  0
  -26.3500    5.1030  -32.5660 C   0  0  0  0  0
  -32.1270    7.9680  -23.9680 C   0  0  0  0  0
  -28.3540    5.2450  -31.4060 C   0  0  0  0  0
  -29.0970    4.9310  -32.6240 C   0  0  0  0  0
  -28.3010    4.7130  -33.8370 C   0  0  0  0  0
  -33.5740    8.2410  -23.6250 C   0  0  0  0  0
  -26.9580    4.8140  -33.7340 N   0  0  0  0  0
  -27.0020    5.3250  -31.4100 N   0  0  0  0  0
  -30.5020    5.2080  -30.9830 C   0  0  0  0  0
  -28.9610    5.7210  -29.0710 C   0  0  0  0  0
  -29.8330    6.8160  -28.4870 C   0  0  0  0  0
  -29.7430    6.5140  -26.9920 C   0  0  0  0  0
  -29.3410    5.0320  -26.9510 C   0  0  0  0  0
  -30.3300    4.1520  -26.2150 C   0  0  0  0  0
  -32.1150    2.8940  -24.2100 O   0  0  0  0  0
  -31.2540    4.0420  -23.7380 P   0  0  0  0  0
  -32.2310    5.4810  -23.6840 N   0  0  0  0  0
  -30.5110    3.8820  -22.4510 O   0  0  0  0  0
  -30.1260    4.3750  -24.8270 O   0  0  0  0  0
  -28.7710    7.3250  -26.3010 O   0  0  0  0  0
  -29.3840    8.1220  -28.8730 O   0  0  0  0  0
  -29.2960    4.5810  -28.2990 O   0  0  0  0  0
  -29.2750    5.4090  -30.4700 N   0  0  0  0  0
  -30.4070    4.9290  -32.3060 N   0  0  0  0  0
  -28.9110    4.4190  -35.0140 N   0  0  0  0  0
  -34.1280    8.6740  -22.3220 C   0  0  0  0  0
  -35.5820    8.8210  -22.5250 C   0  0  0  0  0
  -35.8210    8.5120  -23.8130 N   0  0  0  0  0
  -34.6750    8.1790  -24.4750 C   0  0  0  0  0
  -33.5440    8.9090  -21.0870 C   0  0  0  0  0
  -34.3760    9.3070  -20.0380 C   0  0  0  0  0
  -35.7560    9.4510  -20.2170 C   0  0  0  0  0
  -36.3680    9.2120  -21.4450 C   0  0  0  0  0
  -31.7194    6.8390  -22.2211 H   0  0  0  0  0
  -30.5245    6.6324  -23.5934 H   0  0  0  0  0
  -25.2615    5.1605  -32.5575 H   0  0  0  0  0
  -32.0686    7.8134  -25.0454 H   0  0  0  0  0
  -31.5410    8.8185  -23.6196 H   0  0  0  0  0
  -31.4333    5.2615  -30.4192 H   0  0  0  0  0
  -27.9138    6.0225  -29.0469 H   0  0  0  0  0
  -30.8642    6.8256  -28.8401 H   0  0  0  0  0
  -30.6828    6.7335  -26.4853 H   0  0  0  0  0
  -28.3894    4.9601  -26.4244 H   0  0  0  0  0
  -30.1752    3.1025  -26.4653 H   0  0  0  0  0
  -31.3531    4.3971  -26.5001 H   0  0  0  0  0
  -32.5314    3.1290  -25.0424 H   0  0  0  0  0
  -33.2242    5.4588  -23.9154 H   0  0  0  0  0
  -28.7622    7.0888  -25.3706 H   0  0  0  0  0
  -29.9597    8.7848  -28.4847 H   0  0  0  0  0
  -29.9276    4.3487  -35.0579 H   0  0  0  0  0
  -28.3526    4.2684  -35.8542 H   0  0  0  0  0
  -34.6279    7.9017  -25.5281 H   0  0  0  0  0
  -32.4709    8.7872  -20.9394 H   0  0  0  0  0
  -33.9409    9.5096  -19.0594 H   0  0  0  0  0
  -36.3701    9.7592  -19.3708 H   0  0  0  0  0
  -37.4457    9.3293  -21.5585 H   0  0  0  0  0
  1  3  1  0  0  0
 18  1  1  0  0  0
  2  8  4  0  0  0
  9  2  4  0  0  0
  3  7  1  0  0  0
  4  5  4  0  0  0
  4  9  4  0  0  0
 24  4  4  0  0  0
  5  6  4  0  0  0
 25  5  4  0  0  0
  6  8  4  0  0  0
  6 26  1  0  0  0
  7 27  4  0  0  0
  7 30  4  0  0  0
 24 10  4  0  0  0
 10 25  4  0  0  0
 11 12  1  0  0  0
 23 11  1  0  0  0
 11 24  1  0  0  0
 13 12  1  0  0  0
 12 22  1  0  0  0
 14 13  1  0  0  0
 13 21  1  0  0  0
 15 14  1  0  0  0
 14 23  1  0  0  0
 20 15  1  0  0  0
 17 16  1  0  0  0
 17 18  1  0  0  0
 17 19  2  0  0  0
 17 20  1  0  0  0
 27 28  4  0  0  0
 27 31  4  0  0  0
 28 29  4  0  0  0
 28 34  4  0  0  0
 29 30  4  0  0  0
 31 32  4  0  0  0
 32 33  4  0  0  0
 33 34  4  0  0  0
  1 35  1  0  0  0
  1 36  1  0  0  0
  2 37  1  0  0  0
  3 38  1  0  0  0
  3 39  1  0  0  0
 10 40  1  0  0  0
 11 41  1  0  0  0
 12 42  1  0  0  0
 13 43  1  0  0  0
 14 44  1  0  0  0
 15 45  1  0  0  0
 15 46  1  0  0  0
 16 47  1  0  0  0
 18 48  1  0  0  0
 21 49  1  0  0  0
 22 50  1  0  0  0
 26 51  1  0  0  0
 26 52  1  0  0  0
 30 53  1  0  0  0
 31 54  1  0  0  0
 32 55  1  0  0  0
 33 56  1  0  0  0
 34 57  1  0  0  0
M  END
$$$$
