5kma_ligand
  -I-interpret- 

 44 46  0  0  0  0  0  0  0  0999 V2000
  -31.6790    6.5410  -23.9730 C   0  0  0  0  0
  -31.8310    7.1980  -22.6120 C   0  0  0  0  0
  -32.2960    5.2190  -23.9680 N   0  0  0  0  0
  -31.2780    3.8340  -23.9130 P   0  0  0  0  0
  -32.0550    2.6270  -24.3900 O   0  0  0  0  0
  -30.5960    3.7670  -22.5740 O   0  0  0  0  0
  -30.1030    4.1760  -24.9640 O   0  0  0  0  0
  -30.3250    3.9980  -26.3620 C   0  0  0  0  0
  -29.3300    4.8840  -27.0870 C   0  0  0  0  0
  -29.2830    4.4480  -28.4440 O   0  0  0  0  0
  -29.7550    6.3530  -27.1030 C   0  0  0  0  0
  -28.7970    7.1710  -26.3970 O   0  0  0  0  0
  -29.8830    6.6980  -28.5890 C   0  0  0  0  0
  -29.4250    8.0090  -28.9490 O   0  0  0  0  0
  -29.0620    5.5990  -29.2450 C   0  0  0  0  0
  -29.5220    5.2950  -30.6060 N   0  0  0  0  0
  -28.6890    5.1300  -31.6260 C   0  0  0  0  0
  -27.3440    5.2110  -31.7630 N   0  0  0  0  0
  -26.7920    4.9890  -32.9820 C   0  0  0  0  0
  -25.4440    5.0680  -33.1040 N   0  0  0  0  0
  -27.5360    4.7250  -34.0770 N   0  0  0  0  0
  -30.7930    5.1100  -31.0100 C   0  0  0  0  0
  -30.8240    4.8310  -32.3350 N   0  0  0  0  0
  -29.5460    4.8400  -32.7710 C   0  0  0  0  0
  -28.8770    4.6250  -34.0570 C   0  0  0  0  0
  -29.5710    4.3830  -35.0750 O   0  0  0  0  0
  -30.6184    6.4381  -24.2023 H   0  0  0  0  0
  -32.1696    7.1601  -24.7241 H   0  0  0  0  0
  -32.8901    7.2995  -22.3752 H   0  0  0  0  0
  -31.3459    6.5808  -21.8558 H   0  0  0  0  0
  -31.3657    8.1835  -22.6317 H   0  0  0  0  0
  -33.3106    5.1182  -23.9965 H   0  0  0  0  0
  -32.4331    2.8118  -25.2529 H   0  0  0  0  0
  -31.3468    4.2693  -26.6273 H   0  0  0  0  0
  -30.1878    2.9540  -26.6438 H   0  0  0  0  0
  -28.3721    4.8088  -26.5724 H   0  0  0  0  0
  -30.6964    6.5382  -26.5857 H   0  0  0  0  0
  -29.0824    8.0873  -26.4191 H   0  0  0  0  0
  -30.9247    6.7359  -28.9076 H   0  0  0  0  0
  -29.5416    8.1395  -29.8929 H   0  0  0  0  0
  -28.0181    5.9043  -29.3162 H   0  0  0  0  0
  -26.7548    5.4356  -30.9613 H   0  0  0  0  0
  -25.0053    4.9287  -34.0142 H   0  0  0  0  0
  -31.6691    5.1752  -30.3649 H   0  0  0  0  0
  1  2  1  0  0  0
  1  3  1  0  0  0
  3  4  1  0  0  0
  4  5  1  0  0  0
  4  6  2  0  0  0
  4  7  1  0  0  0
  7  8  1  0  0  0
  8  9  1  0  0  0
  9 10  1  0  0  0
  9 11  1  0  0  0
 10 15  1  0  0  0
 11 12  1  0  0  0
 11 13  1  0  0  0
 13 14  1  0  0  0
 13 15  1  0  0  0
 15 16  1  0  0  0
 16 17  4  0  0  0
 16 22  4  0  0  0
 17 18  1  0  0  0
 17 24  4  0  0  0
 18 19  1  0  0  0
 19 20  2  0  0  0
 19 21  4  0  0  0
 21 25  1  0  0  0
 22 23  4  0  0  0
 23 24  4  0  0  0
 24 25  1  0  0  0
 25 26  2  0  0  0
  1 27  1  0  0  0
  1 28  1  0  0  0
  2 29  1  0  0  0
  2 30  1  0  0  0
  2 31  1  0  0  0
  3 32  1  0  0  0
  5 33  1  0  0  0
  8 34  1  0  0  0
  8 35  1  0  0  0
  9 36  1  0  0  0
 11 37  1  0  0  0
 12 38  1  0  0  0
 13 39  1  0  0  0
 14 40  1  0  0  0
 15 41  1  0  0  0
 18 42  1  0  0  0
 20 43  1  0  0  0
 22 44  1  0  0  0
M  END
$$$$
