5mi3_ligand
  -I-interpret- 

 42 44  0  0  0  0  0  0  0  0999 V2000
  -11.4760   39.2300   -2.5450 P   0  0  0  0  0
  -11.2460   39.9100   -3.8880 O   0  0  0  0  0
  -11.8870   40.2700   -1.5080 O   0  0  0  0  0
  -12.5090   38.1120   -2.6230 O   0  0  0  0  0
  -10.0400   38.6520   -2.0850 O   0  0  0  0  0
   -9.7300   37.0800   -1.9670 P   0  0  0  0  0
   -9.8070   36.3890   -3.3020 O   0  0  0  0  0
  -10.6450   36.3930   -0.9850 O   0  0  0  0  0
   -8.2210   37.1560   -1.4200 O   0  0  0  0  0
   -7.1740   37.6870   -2.2290 C   0  0  0  0  0
   -5.8060   37.1490   -1.7920 C   0  0  0  0  0
   -5.5470   37.4990   -0.4280 O   0  0  0  0  0
   -5.7260   35.6330   -1.8720 C   0  0  0  0  0
   -4.3910   35.2540   -2.2050 O   0  0  0  0  0
   -6.0200   35.2460   -0.4490 C   0  0  0  0  0
   -5.6510   33.9100   -0.1050 O   0  0  0  0  0
   -5.2450   36.3140    0.2930 C   0  0  0  0  0
   -5.8100   36.3470    1.6440 N   0  0  0  0  0
   -7.1120   36.3560    1.9620 C   0  0  0  0  0
   -7.2480   36.3720    3.3050 N   0  0  0  0  0
   -6.0250   36.3680    3.8650 C   0  0  0  0  0
   -5.4560   36.3780    5.2320 C   0  0  0  0  0
   -6.2020   36.3880    6.2280 O   0  0  0  0  0
   -4.1210   36.3700    5.3450 N   0  0  0  0  0
   -3.3110   36.3490    4.2650 C   0  0  0  0  0
   -1.9740   36.3490    4.4090 N   0  0  0  0  0
   -3.7610   36.3450    2.9990 N   0  0  0  0  0
   -5.0820   36.3510    2.7490 C   0  0  0  0  0
  -12.0311   39.8380   -0.6629 H   0  0  0  0  0
  -12.6175   37.7169   -1.7548 H   0  0  0  0  0
  -10.5923   36.8372   -0.1356 H   0  0  0  0  0
   -7.1702   38.7719   -2.1240 H   0  0  0  0  0
   -7.3497   37.3904   -3.2631 H   0  0  0  0  0
   -5.0785   37.5931   -2.4715 H   0  0  0  0  0
   -6.3873   35.1767   -2.6086 H   0  0  0  0  0
   -4.3347   34.2971   -2.2569 H   0  0  0  0  0
   -7.0835   35.2159   -0.2119 H   0  0  0  0  0
   -5.8712   33.7451    0.8147 H   0  0  0  0  0
   -4.1675   36.1667    0.3664 H   0  0  0  0  0
   -7.9343   36.3511    1.2465 H   0  0  0  0  0
   -1.5615   36.3650    5.3417 H   0  0  0  0  0
   -3.0976   36.3374    2.2243 H   0  0  0  0  0
  1  2  2  0  0  0
  1  3  1  0  0  0
  1  4  1  0  0  0
  1  5  1  0  0  0
  5  6  1  0  0  0
  6  7  2  0  0  0
  6  8  1  0  0  0
  6  9  1  0  0  0
  9 10  1  0  0  0
 10 11  1  0  0  0
 11 12  1  0  0  0
 11 13  1  0  0  0
 12 17  1  0  0  0
 13 14  1  0  0  0
 13 15  1  0  0  0
 15 16  1  0  0  0
 15 17  1  0  0  0
 17 18  1  0  0  0
 18 19  4  0  0  0
 18 28  4  0  0  0
 19 20  4  0  0  0
 20 21  4  0  0  0
 21 22  1  0  0  0
 21 28  4  0  0  0
 22 23  2  0  0  0
 22 24  1  0  0  0
 24 25  4  0  0  0
 25 26  2  0  0  0
 25 27  1  0  0  0
 27 28  1  0  0  0
  3 29  1  0  0  0
  4 30  1  0  0  0
  8 31  1  0  0  0
 10 32  1  0  0  0
 10 33  1  0  0  0
 11 34  1  0  0  0
 13 35  1  0  0  0
 14 36  1  0  0  0
 15 37  1  0  0  0
 16 38  1  0  0  0
 17 39  1  0  0  0
 19 40  1  0  0  0
 26 41  1  0  0  0
 27 42  1  0  0  0
M  END
$$$$
