5mi9_ligand
  -I-interpret- 

 42 44  0  0  0  0  0  0  0  0999 V2000
  -44.5290    0.2270   12.0530 P   0  0  0  0  0
  -45.3880    0.5250   10.7880 O   0  0  0  0  0
  -42.9910    0.4880   11.7900 O   0  0  0  0  0
  -44.8210   -1.1730   12.5190 O   0  0  0  0  0
  -45.1780    1.1190   13.2070 O   0  0  0  0  0
  -45.3390    0.8690   14.7730 P   0  0  0  0  0
  -46.2260   -0.2930   14.9970 O   0  0  0  0  0
  -43.9840    0.5690   15.4620 O   0  0  0  0  0
  -45.9470    2.2420   15.3830 O   0  0  0  0  0
  -45.4130    3.5800   15.2130 C   0  0  0  0  0
  -45.7620    4.5010   16.3630 C   0  0  0  0  0
  -47.1410    4.9360   16.2820 O   0  0  0  0  0
  -45.5670    3.9170   17.7620 C   0  0  0  0  0
  -44.9090    4.8110   18.6500 O   0  0  0  0  0
  -46.9910    3.5700   18.1990 C   0  0  0  0  0
  -47.1860    3.5180   19.6090 O   0  0  0  0  0
  -47.8190    4.6510   17.4930 C   0  0  0  0  0
  -49.1740    4.1660   17.1720 N   0  0  0  0  0
  -49.4820    2.8510   16.9520 C   0  0  0  0  0
  -50.7630    2.6030   16.8820 N   0  0  0  0  0
  -51.3550    3.8420   17.0470 C   0  0  0  0  0
  -52.7490    4.2200   17.1340 C   0  0  0  0  0
  -53.7330    3.4810   17.0680 O   0  0  0  0  0
  -52.8970    5.5780   17.3710 N   0  0  0  0  0
  -51.8630    6.4800   17.5090 C   0  0  0  0  0
  -52.2000    7.7430   17.7970 N   0  0  0  0  0
  -50.5710    6.1470   17.4170 N   0  0  0  0  0
  -50.3840    4.8250   17.2070 C   0  0  0  0  0
  -45.2080    1.4174   10.4833 H   0  0  0  0  0
  -42.8669    1.3935   11.4963 H   0  0  0  0  0
  -43.3885    1.3105   15.3308 H   0  0  0  0  0
  -45.8467    3.9999   14.3054 H   0  0  0  0  0
  -44.3268    3.5025   15.1650 H   0  0  0  0  0
  -45.0550    5.3221   16.2442 H   0  0  0  0  0
  -44.9076    3.0491   17.7674 H   0  0  0  0  0
  -44.8137    4.3942   19.5095 H   0  0  0  0  0
  -47.2792    2.5558   17.9227 H   0  0  0  0  0
  -48.1008    3.2954   19.7964 H   0  0  0  0  0
  -47.9234    5.5251   18.1357 H   0  0  0  0  0
  -48.7231    2.0761   16.8443 H   0  0  0  0  0
  -53.1821    7.9972   17.9035 H   0  0  0  0  0
  -49.8080    6.8192   17.4968 H   0  0  0  0  0
  1  2  1  0  0  0
  1  3  1  0  0  0
  1  4  2  0  0  0
  1  5  1  0  0  0
  5  6  1  0  0  0
  6  7  2  0  0  0
  6  8  1  0  0  0
  6  9  1  0  0  0
  9 10  1  0  0  0
 10 11  1  0  0  0
 11 12  1  0  0  0
 11 13  1  0  0  0
 12 17  1  0  0  0
 13 14  1  0  0  0
 13 15  1  0  0  0
 15 16  1  0  0  0
 15 17  1  0  0  0
 17 18  1  0  0  0
 18 19  4  0  0  0
 18 28  4  0  0  0
 19 20  4  0  0  0
 20 21  4  0  0  0
 21 22  1  0  0  0
 21 28  4  0  0  0
 22 23  2  0  0  0
 22 24  1  0  0  0
 24 25  4  0  0  0
 25 26  2  0  0  0
 25 27  1  0  0  0
 27 28  1  0  0  0
  2 29  1  0  0  0
  3 30  1  0  0  0
  8 31  1  0  0  0
 10 32  1  0  0  0
 10 33  1  0  0  0
 11 34  1  0  0  0
 13 35  1  0  0  0
 14 36  1  0  0  0
 15 37  1  0  0  0
 16 38  1  0  0  0
 17 39  1  0  0  0
 19 40  1  0  0  0
 26 41  1  0  0  0
 27 42  1  0  0  0
M  END
$$$$
