5niy_ligand
  -I-interpret- 

 48 50  0  0  0  0  0  0  0  0999 V2000
   -5.0810   -0.1300    3.6750 P   0  0  0  0  0
   -4.0920   -0.8690    2.7980 O   0  0  0  0  0
   -5.5690    1.1840    3.1110 O   0  0  0  0  0
   -6.3400   -0.8870    4.0300 O   0  0  0  0  0
   -4.3550    0.1850    5.0580 N   0  0  0  0  0
   -3.2430   -0.7120    5.7570 P   0  0  0  0  0
   -2.3070   -1.2930    4.7790 O   0  0  0  0  0
   -2.6540    0.1450    6.8060 O   0  0  0  0  0
   -3.9440   -1.8420    6.4880 O   0  0  0  0  0
   -4.9440   -1.4560    7.5660 P   0  0  0  0  0
   -5.8960   -0.4610    7.0140 O   0  0  0  0  0
   -4.2340   -1.0950    8.8150 O   0  0  0  0  0
   -5.7950   -2.7280    7.9110 O   0  0  0  0  0
   -6.5950   -2.6150    9.0550 C   0  0  0  0  0
   -7.9790   -3.1470    8.7840 C   0  0  0  0  0
   -8.0670   -4.3910    9.4970 O   0  0  0  0  0
   -9.0790   -2.3370    9.4400 C   0  0  0  0  0
  -10.3490   -2.9030    9.1290 O   0  0  0  0  0
   -8.7050   -2.5850   10.8880 C   0  0  0  0  0
   -9.7120   -2.2480   11.8230 O   0  0  0  0  0
   -8.5830   -4.0960   10.7810 C   0  0  0  0  0
   -7.7220   -4.6440   11.8070 N   0  0  0  0  0
   -6.3940   -4.3820   12.0720 C   0  0  0  0  0
   -5.9530   -5.0560   13.0900 N   0  0  0  0  0
   -7.0550   -5.8020   13.5170 C   0  0  0  0  0
   -7.2200   -6.7300   14.5740 C   0  0  0  0  0
   -6.3880   -7.1050   15.3860 O   0  0  0  0  0
   -8.5120   -7.2490   14.6450 N   0  0  0  0  0
   -9.5330   -6.9110   13.7900 C   0  0  0  0  0
  -10.7150   -7.5050   13.9940 N   0  0  0  0  0
   -9.4060   -6.0500   12.7960 N   0  0  0  0  0
   -8.1500   -5.5460   12.7320 C   0  0  0  0  0
   -3.8346   -1.6880    3.2277 H   0  0  0  0  0
   -6.1050   -1.7417    4.3985 H   0  0  0  0  0
   -4.6288    1.0414    5.5397 H   0  0  0  0  0
   -3.3504    0.4667    7.3832 H   0  0  0  0  0
   -6.2896   -0.8081    6.2101 H   0  0  0  0  0
   -6.6675   -1.5640    9.3348 H   0  0  0  0  0
   -6.1443   -3.1933    9.8615 H   0  0  0  0  0
   -8.1069   -3.1680    7.7017 H   0  0  0  0  0
   -9.1567   -1.2894    9.1492 H   0  0  0  0  0
  -11.0402   -2.3848    9.5477 H   0  0  0  0  0
   -7.8507   -2.0086   11.2429 H   0  0  0  0  0
   -9.3978   -2.4339   12.7109 H   0  0  0  0  0
   -9.5636   -4.5500   10.9239 H   0  0  0  0  0
   -5.7845   -3.6883   11.4928 H   0  0  0  0  0
  -10.8249   -8.1737   14.7563 H   0  0  0  0  0
  -10.1593   -5.7964   12.1567 H   0  0  0  0  0
  1  2  1  0  0  0
  1  3  2  0  0  0
  1  4  1  0  0  0
  1  5  1  0  0  0
  5  6  1  0  0  0
  6  7  2  0  0  0
  6  8  1  0  0  0
  6  9  1  0  0  0
  9 10  1  0  0  0
 10 11  1  0  0  0
 10 12  2  0  0  0
 10 13  1  0  0  0
 13 14  1  0  0  0
 14 15  1  0  0  0
 15 16  1  0  0  0
 15 17  1  0  0  0
 16 21  1  0  0  0
 17 18  1  0  0  0
 17 19  1  0  0  0
 19 20  1  0  0  0
 19 21  1  0  0  0
 21 22  1  0  0  0
 22 23  4  0  0  0
 22 32  4  0  0  0
 23 24  4  0  0  0
 24 25  4  0  0  0
 25 26  1  0  0  0
 25 32  4  0  0  0
 26 27  2  0  0  0
 26 28  1  0  0  0
 28 29  4  0  0  0
 29 30  2  0  0  0
 29 31  1  0  0  0
 31 32  1  0  0  0
  2 33  1  0  0  0
  4 34  1  0  0  0
  5 35  1  0  0  0
  8 36  1  0  0  0
 11 37  1  0  0  0
 14 38  1  0  0  0
 14 39  1  0  0  0
 15 40  1  0  0  0
 17 41  1  0  0  0
 18 42  1  0  0  0
 19 43  1  0  0  0
 20 44  1  0  0  0
 21 45  1  0  0  0
 23 46  1  0  0  0
 30 47  1  0  0  0
 31 48  1  0  0  0
M  END
$$$$
