5tha_ligand
  -I-interpret- 

 37 39  0  0  0  0  0  0  0  0999 V2000
   36.2640   67.8530   31.6100 N   0  0  0  0  0
   36.7080   68.7450   30.6490 C   0  0  0  0  0
   36.2840   69.9860   30.8250 N   0  0  0  0  0
   35.5050   69.9170   31.9660 C   0  0  0  0  0
   34.7260   70.9250   32.6630 C   0  0  0  0  0
   34.5430   72.1060   32.3260 O   0  0  0  0  0
   34.0840   70.4050   33.7750 N   0  0  0  0  0
   34.1370   69.0880   34.2030 C   0  0  0  0  0
   33.4410   68.7850   35.3230 N   0  0  0  0  0
   34.8280   68.1280   33.5620 N   0  0  0  0  0
   35.4880   68.5930   32.4730 C   0  0  0  0  0
   39.4450   66.0840   28.5620 O   0  0  0  0  0
   38.0070   66.0000   28.4360 C   0  0  0  0  0
   37.3390   65.4120   29.6690 C   0  0  0  0  0
   37.7150   66.1550   30.8510 O   0  0  0  0  0
   35.8070   65.4680   29.6330 C   0  0  0  0  0
   35.2640   64.3580   28.9130 O   0  0  0  0  0
   35.4430   65.5150   31.1290 C   0  0  0  0  0
   35.4390   64.2340   31.7630 O   0  0  0  0  0
   36.5760   66.3960   31.6740 C   0  0  0  0  0
   40.3310   66.5700   27.2370 P   0  0  0  0  0
   40.6350   65.4160   26.1840 O   0  0  0  0  0
   39.6220   67.6720   26.5580 O   0  0  0  0  0
   41.6720   66.9970   27.7510 O   0  0  0  0  0
   37.3509   68.4507   29.8195 H   0  0  0  0  0
   32.9126   69.5108   35.8071 H   0  0  0  0  0
   34.8527   67.1538   33.8634 H   0  0  0  0  0
   37.7841   65.3464   27.5927 H   0  0  0  0  0
   37.6248   67.0118   28.3005 H   0  0  0  0  0
   37.6710   64.3740   29.6876 H   0  0  0  0  0
   35.3894   66.3206   29.0975 H   0  0  0  0  0
   34.3060   64.4196   28.9071 H   0  0  0  0  0
   34.4325   65.8820   31.3086 H   0  0  0  0  0
   35.2053   64.3369   32.6884 H   0  0  0  0  0
   36.7355   66.1444   32.7225 H   0  0  0  0  0
   41.0963   64.6974   26.6227 H   0  0  0  0  0
   42.0988   66.2541   28.1841 H   0  0  0  0  0
  1  2  4  0  0  0
  1 11  4  0  0  0
 20  1  1  0  0  0
  2  3  4  0  0  0
  4  3  4  0  0  0
  4  5  1  0  0  0
 11  4  4  0  0  0
  5  6  2  0  0  0
  5  7  1  0  0  0
  8  7  4  0  0  0
  8  9  2  0  0  0
 10  8  1  0  0  0
 11 10  1  0  0  0
 13 12  1  0  0  0
 12 21  1  0  0  0
 14 13  1  0  0  0
 15 14  1  0  0  0
 14 16  1  0  0  0
 15 20  1  0  0  0
 16 17  1  0  0  0
 16 18  1  0  0  0
 18 19  1  0  0  0
 18 20  1  0  0  0
 21 22  1  0  0  0
 21 23  2  0  0  0
 21 24  1  0  0  0
  2 25  1  0  0  0
  9 26  1  0  0  0
 10 27  1  0  0  0
 13 28  1  0  0  0
 13 29  1  0  0  0
 14 30  1  0  0  0
 16 31  1  0  0  0
 17 32  1  0  0  0
 18 33  1  0  0  0
 19 34  1  0  0  0
 20 35  1  0  0  0
 22 36  1  0  0  0
 24 37  1  0  0  0
M  END
$$$$
