5tqs_ligand
  -I-interpret- 

110113  0  0  0  0  0  0  0  0999 V2000
  -20.1160   18.8360  -48.3910 N   0  3  0  0  0
  -19.0350   17.8510  -48.3690 C   0  0  0  0  0
  -19.5750   16.4300  -48.2780 C   0  0  0  0  0
  -20.3350   16.0990  -47.3630 O   0  0  0  0  0
  -18.0850   18.1260  -47.2010 C   0  0  0  0  0
  -18.7260   18.5480  -45.8700 C   0  0  0  0  0
  -19.3130   17.3590  -45.1080 C   0  0  0  0  0
  -17.7270   19.3070  -45.0090 C   0  0  0  0  0
  -19.1910   15.6050  -49.2490 N   0  0  0  0  0
  -19.5020   14.1830  -49.2180 C   0  0  0  0  0
  -18.7780   13.6010  -48.0170 C   0  0  0  0  0
  -19.3680   12.8860  -47.2140 O   0  0  0  0  0
  -19.0790   13.4970  -50.5140 C   0  0  0  0  0
  -19.5510   12.0720  -50.6350 C   0  0  0  0  0
  -18.6430   11.0220  -50.6340 C   0  0  0  0  0
  -20.9040   11.7690  -50.7460 C   0  0  0  0  0
  -19.0650    9.7030  -50.7430 C   0  0  0  0  0
  -21.3410   10.4510  -50.8540 C   0  0  0  0  0
  -20.4110    9.4240  -50.8480 C   0  0  0  0  0
  -20.8180    8.1120  -50.9530 O   0  0  0  0  0
  -17.5030   13.9470  -47.8800 N   0  0  0  0  0
  -16.7610   13.6220  -46.6690 C   0  0  0  0  0
  -16.3650   14.9090  -45.9730 C   0  0  0  0  0
  -15.7920   15.8040  -46.5860 O   0  0  0  0  0
  -15.5140   12.7650  -46.9160 C   0  0  0  0  0
  -15.8150   11.3280  -47.2890 C   0  0  0  0  0
  -15.9430   10.9560  -48.6170 C   0  0  0  0  0
  -15.9770   10.3480  -46.3190 C   0  0  0  0  0
  -16.2210    9.6500  -48.9710 C   0  0  0  0  0
  -16.2620    9.0420  -46.6710 C   0  0  0  0  0
  -16.3820    8.7020  -47.9970 C   0  0  0  0  0
  -16.5930    7.4790  -48.3740 O   0  0  0  0  0
  -17.9150    6.6140  -48.1840 P   0  0  0  0  0
  -18.6330    6.4900  -49.5280 O   0  0  0  0  0
  -17.4830    5.2810  -47.7090 O   0  0  0  0  0
  -18.8320    7.2680  -47.1540 O   0  0  0  0  0
  -16.7050   15.0120  -44.6950 N   0  0  0  0  0
  -16.2740   16.1330  -43.8870 C   0  0  0  0  0
  -14.7680   16.0690  -43.6550 C   0  0  0  0  0
  -14.2320   14.9920  -43.3980 O   0  0  0  0  0
  -17.0260   16.1440  -42.5600 C   0  0  0  0  0
  -16.4590   17.1200  -41.6130 C   0  0  0  0  0
  -16.6580   18.4730  -41.6100 C   0  0  0  0  0
  -15.5680   16.8420  -40.5370 C   0  0  0  0  0
  -15.9540   19.0470  -40.5860 N   0  0  0  0  0
  -15.2740   18.0670  -39.9110 C   0  0  0  0  0
  -14.9980   15.6710  -40.0320 C   0  0  0  0  0
  -14.4350   18.1550  -38.8070 C   0  0  0  0  0
  -14.1650   15.7610  -38.9390 C   0  0  0  0  0
  -13.8910   16.9930  -38.3370 C   0  0  0  0  0
  -14.0980   17.2180  -43.7750 N   0  0  0  0  0
  -12.6470   17.3360  -43.5580 C   0  0  0  0  0
  -12.3030   18.1610  -42.3300 C   0  0  0  0  0
  -12.8260   19.2510  -42.1580 O   0  0  0  0  0
  -11.9640   17.9890  -44.7660 C   0  0  0  0  0
  -11.7810   17.0400  -45.9120 C   0  0  0  0  0
  -12.7910   16.6720  -46.5450 O   0  0  0  0  0
  -10.6210   16.6710  -46.1880 O   0  0  0  0  0
  -11.3900   17.6580  -41.5040 N   0  0  0  0  0
  -10.9120   18.4170  -40.3510 C   0  0  0  0  0
  -20.7387   18.6382  -49.1743 H   0  0  0  0  0
  -20.6396   18.7839  -47.5172 H   0  0  0  0  0
  -19.7209   19.7704  -48.4968 H   0  0  0  0  0
  -18.4863   17.9438  -49.3062 H   0  0  0  0  0
  -17.4632   18.9652  -47.5127 H   0  0  0  0  0
  -17.5755   17.1832  -47.0018 H   0  0  0  0  0
  -19.5558   19.2135  -46.1079 H   0  0  0  0  0
  -18.5097   16.6800  -44.8221 H   0  0  0  0  0
  -19.8226   17.7179  -44.2138 H   0  0  0  0  0
  -20.0236   16.8346  -45.7469 H   0  0  0  0  0
  -18.2277   19.6769  -44.1142 H   0  0  0  0  0
  -16.9148   18.6389  -44.7225 H   0  0  0  0  0
  -17.3254   20.1471  -45.5757 H   0  0  0  0  0
  -18.6636   15.9796  -50.0376 H   0  0  0  0  0
  -20.5766   14.0232  -49.1297 H   0  0  0  0  0
  -17.9893   13.4791  -50.5296 H   0  0  0  0  0
  -19.5250   14.0563  -51.3364 H   0  0  0  0  0
  -17.5780   11.2367  -50.5460 H   0  0  0  0  0
  -21.6352   12.5774  -50.7485 H   0  0  0  0  0
  -18.3357    8.8929  -50.7455 H   0  0  0  0  0
  -22.4046   10.2295  -50.9424 H   0  0  0  0  0
  -21.7753    8.0793  -51.0178 H   0  0  0  0  0
  -17.0355   14.4486  -48.6352 H   0  0  0  0  0
  -17.4227   13.0214  -46.0450 H   0  0  0  0  0
  -14.9472   12.7446  -45.9852 H   0  0  0  0  0
  -14.9776   13.2101  -47.7540 H   0  0  0  0  0
  -15.8222   11.7076  -49.3971 H   0  0  0  0  0
  -15.8782   10.6119  -45.2661 H   0  0  0  0  0
  -16.3118    9.3755  -50.0220 H   0  0  0  0  0
  -16.3912    8.2838  -45.8987 H   0  0  0  0  0
  -18.9076    7.3608  -49.8244 H   0  0  0  0  0
  -19.1054    8.1312  -47.4730 H   0  0  0  0  0
  -17.2828   14.2854  -44.2724 H   0  0  0  0  0
  -16.4989   17.0583  -44.4175 H   0  0  0  0  0
  -16.9474   15.1520  -42.1152 H   0  0  0  0  0
  -18.0614   16.4219  -42.7570 H   0  0  0  0  0
  -17.2848   19.0145  -42.3185 H   0  0  0  0  0
  -15.2081   14.7061  -40.4934 H   0  0  0  0  0
  -14.2193   19.1132  -38.3344 H   0  0  0  0  0
  -13.7111   14.8556  -38.5360 H   0  0  0  0  0
  -13.2279   17.0272  -37.4726 H   0  0  0  0  0
  -14.6187   18.0571  -44.0302 H   0  0  0  0  0
  -12.2871   16.3174  -43.4129 H   0  0  0  0  0
  -10.9766   18.3256  -44.4500 H   0  0  0  0  0
  -12.5990   18.8065  -45.1073 H   0  0  0  0  0
  -10.0033   17.0750  -45.5741 H   0  0  0  0  0
  -11.0167   16.7250  -41.6788 H   0  0  0  0  0
  -10.4575   19.3469  -40.6928 H   0  0  0  0  0
  -11.7510   18.6418  -39.6925 H   0  0  0  0  0
  -10.1721   17.8267  -39.8104 H   0  0  0  0  0
  1  2  1  0  0  0
  2  3  1  0  0  0
  2  5  1  0  0  0
  3  4  2  0  0  0
  3  9  1  0  0  0
  5  6  1  0  0  0
  6  7  1  0  0  0
  6  8  1  0  0  0
  9 10  1  0  0  0
 10 11  1  0  0  0
 10 13  1  0  0  0
 11 12  2  0  0  0
 11 21  1  0  0  0
 13 14  1  0  0  0
 14 15  4  0  0  0
 14 16  4  0  0  0
 15 17  4  0  0  0
 16 18  4  0  0  0
 17 19  4  0  0  0
 18 19  4  0  0  0
 19 20  1  0  0  0
 21 22  1  0  0  0
 22 23  1  0  0  0
 22 25  1  0  0  0
 23 24  2  0  0  0
 23 37  1  0  0  0
 25 26  1  0  0  0
 26 27  4  0  0  0
 26 28  4  0  0  0
 27 29  4  0  0  0
 28 30  4  0  0  0
 29 31  4  0  0  0
 30 31  4  0  0  0
 31 32  1  0  0  0
 32 33  1  0  0  0
 33 34  1  0  0  0
 33 35  2  0  0  0
 33 36  1  0  0  0
 37 38  1  0  0  0
 38 39  1  0  0  0
 38 41  1  0  0  0
 39 40  2  0  0  0
 39 51  1  0  0  0
 41 42  1  0  0  0
 42 43  4  0  0  0
 42 44  4  0  0  0
 43 45  4  0  0  0
 44 46  4  0  0  0
 44 47  4  0  0  0
 45 46  4  0  0  0
 46 48  4  0  0  0
 47 49  4  0  0  0
 48 50  4  0  0  0
 49 50  4  0  0  0
 51 52  1  0  0  0
 52 53  1  0  0  0
 52 55  1  0  0  0
 53 54  2  0  0  0
 53 59  1  0  0  0
 55 56  1  0  0  0
 56 57  2  0  0  0
 56 58  1  0  0  0
 59 60  1  0  0  0
  1 61  1  0  0  0
  1 62  1  0  0  0
  1 63  1  0  0  0
  2 64  1  0  0  0
  5 65  1  0  0  0
  5 66  1  0  0  0
  6 67  1  0  0  0
  7 68  1  0  0  0
  7 69  1  0  0  0
  7 70  1  0  0  0
  8 71  1  0  0  0
  8 72  1  0  0  0
  8 73  1  0  0  0
  9 74  1  0  0  0
 10 75  1  0  0  0
 13 76  1  0  0  0
 13 77  1  0  0  0
 15 78  1  0  0  0
 16 79  1  0  0  0
 17 80  1  0  0  0
 18 81  1  0  0  0
 20 82  1  0  0  0
 21 83  1  0  0  0
 22 84  1  0  0  0
 25 85  1  0  0  0
 25 86  1  0  0  0
 27 87  1  0  0  0
 28 88  1  0  0  0
 29 89  1  0  0  0
 30 90  1  0  0  0
 34 91  1  0  0  0
 36 92  1  0  0  0
 37 93  1  0  0  0
 38 94  1  0  0  0
 41 95  1  0  0  0
 41 96  1  0  0  0
 43 97  1  0  0  0
 47 98  1  0  0  0
 48 99  1  0  0  0
 49100  1  0  0  0
 50101  1  0  0  0
 51102  1  0  0  0
 52103  1  0  0  0
 55104  1  0  0  0
 55105  1  0  0  0
 58106  1  0  0  0
 59107  1  0  0  0
 60108  1  0  0  0
 60109  1  0  0  0
 60110  1  0  0  0
M  END
$$$$
