5tzf_ligand
  -I-interpret- 

 68 74  0  0  0  0  0  0  0  0999 V2000
    2.7520   23.2990   -2.8530 P   0  0  0  0  0
    2.6470   23.1830   -4.4050 O   0  0  0  0  0
    1.4090   23.5320   -2.0420 O   0  0  0  0  0
    3.9000   24.4100   -2.7210 O   0  0  0  0  0
    5.0080   24.3690   -3.5330 C   0  0  0  0  0
    6.0620   25.3160   -3.0350 C   0  0  0  0  0
    5.5770   26.6310   -2.9840 O   0  0  0  0  0
    6.6270   25.1060   -1.6560 C   0  0  0  0  0
    7.4950   24.0330   -1.5020 O   0  0  0  0  0
    7.3870   26.3790   -1.5640 C   0  0  0  0  0
    8.2810   26.4610   -1.8600 O   0  0  0  0  0
    6.3180   27.3240   -1.9890 C   0  0  0  0  0
    5.3650   27.7760   -0.9980 N   0  0  0  0  0
    3.8490   27.4210   -1.0090 C   0  0  0  0  0
    3.2090   27.9910   -0.0410 N   0  0  0  0  0
    4.0030   28.7170    0.6870 C   0  0  0  0  0
    3.6920   29.5420    1.8900 C   0  0  0  0  0
    2.5760   29.6280    2.3510 O   0  0  0  0  0
    4.7190   30.2280    2.4780 N   0  0  0  0  0
    6.0080   30.1410    1.9400 C   0  0  0  0  0
    7.0200   30.8010    2.5070 N   0  0  0  0  0
    6.2930   29.3870    0.8420 N   0  0  0  0  0
    5.2550   28.6660    0.2010 C   0  0  0  0  0
    7.7900   23.4110   -0.0720 P   0  0  0  0  0
    8.7470   22.3060   -0.5730 O   0  0  0  0  0
    8.1790   24.2620    1.2130 O   0  0  0  0  0
    6.5470   22.4020    0.0080 O   0  0  0  0  0
    6.4080   21.4420   -1.0000 C   0  0  0  0  0
    5.0170   20.8540   -0.9420 C   0  0  0  0  0
    4.7690   20.3580    0.3430 O   0  0  0  0  0
    3.9280   21.8420   -1.1770 C   0  0  0  0  0
    3.6360   22.0100   -2.4930 O   0  0  0  0  0
    2.7990   21.2790   -0.3690 C   0  0  0  0  0
    1.9270   20.4890   -1.0370 O   0  0  0  0  0
    3.4400   20.5020    0.6980 C   0  0  0  0  0
    3.3570   21.2580    1.8750 N   0  0  0  0  0
    4.4730   22.0380    2.5550 C   0  0  0  0  0
    4.0510   22.6570    3.6090 N   0  0  0  0  0
    2.7900   22.4270    3.7960 C   0  0  0  0  0
    1.8990   22.8900    4.8830 C   0  0  0  0  0
    2.2920   23.6150    5.8050 O   0  0  0  0  0
    0.5720   22.5020    4.8560 N   0  0  0  0  0
    0.0640   21.6610    3.8240 C   0  0  0  0  0
   -1.3280   21.2730    3.8300 N   0  0  0  0  0
    0.8690   21.2370    2.8510 N   0  0  0  0  0
    2.3110   21.6510    2.8590 C   0  0  0  0  0
    1.6079   23.5854   -1.1043 H   0  0  0  0  0
    4.7179   24.6616   -4.5421 H   0  0  0  0  0
    5.4119   23.3566   -3.5293 H   0  0  0  0  0
    6.8495   25.1197   -3.7626 H   0  0  0  0  0
    5.8639   24.8816   -0.9107 H   0  0  0  0  0
    7.8100   26.5808   -0.5799 H   0  0  0  0  0
    8.5848   27.3596   -1.7119 H   0  0  0  0  0
    6.8366   28.2335   -2.2922 H   0  0  0  0  0
    3.3820   26.7683   -1.7465 H   0  0  0  0  0
    6.8557   31.3719    3.3361 H   0  0  0  0  0
    7.2469   29.3417    0.4837 H   0  0  0  0  0
    7.4866   24.9022    1.3931 H   0  0  0  0  0
    7.1444   20.6516   -0.8549 H   0  0  0  0  0
    6.5665   21.9085   -1.9723 H   0  0  0  0  0
    5.0041   20.0963   -1.7255 H   0  0  0  0  0
    4.1907   22.8562   -0.8762 H   0  0  0  0  0
    2.1838   22.1102   -0.0243 H   0  0  0  0  0
    1.2471   20.1823   -0.4326 H   0  0  0  0  0
    2.9712   19.5287    0.8432 H   0  0  0  0  0
    5.5021   22.0708    2.1973 H   0  0  0  0  0
   -1.9457   21.6011    4.5724 H   0  0  0  0  0
    0.5089   20.6374    2.1086 H   0  0  0  0  0
  1  2  2  0  0  0
  1  3  1  0  0  0
  1  4  1  0  0  0
  1 32  1  0  0  0
  4  5  1  0  0  0
  5  6  1  0  0  0
  6  7  1  0  0  0
  6  8  1  0  0  0
  7 12  1  0  0  0
  8  9  1  0  0  0
  8 10  1  0  0  0
  9 24  1  0  0  0
 10 11  1  0  0  0
 10 12  1  0  0  0
 12 13  1  0  0  0
 13 14  4  0  0  0
 13 23  4  0  0  0
 14 15  4  0  0  0
 15 16  4  0  0  0
 16 17  1  0  0  0
 16 23  4  0  0  0
 17 18  2  0  0  0
 17 19  1  0  0  0
 19 20  4  0  0  0
 20 21  2  0  0  0
 20 22  1  0  0  0
 22 23  1  0  0  0
 24 25  2  0  0  0
 24 26  1  0  0  0
 24 27  1  0  0  0
 27 28  1  0  0  0
 28 29  1  0  0  0
 29 30  1  0  0  0
 29 31  1  0  0  0
 30 35  1  0  0  0
 31 32  1  0  0  0
 31 33  1  0  0  0
 33 34  1  0  0  0
 33 35  1  0  0  0
 35 36  1  0  0  0
 36 37  4  0  0  0
 36 46  4  0  0  0
 37 38  4  0  0  0
 38 39  4  0  0  0
 39 40  1  0  0  0
 39 46  4  0  0  0
 40 41  2  0  0  0
 40 42  1  0  0  0
 42 43  4  0  0  0
 43 44  2  0  0  0
 43 45  1  0  0  0
 45 46  1  0  0  0
  3 47  1  0  0  0
  5 48  1  0  0  0
  5 49  1  0  0  0
  6 50  1  0  0  0
  8 51  1  0  0  0
 10 52  1  0  0  0
 11 53  1  0  0  0
 12 54  1  0  0  0
 14 55  1  0  0  0
 21 56  1  0  0  0
 22 57  1  0  0  0
 26 58  1  0  0  0
 28 59  1  0  0  0
 28 60  1  0  0  0
 29 61  1  0  0  0
 31 62  1  0  0  0
 33 63  1  0  0  0
 34 64  1  0  0  0
 35 65  1  0  0  0
 37 66  1  0  0  0
 44 67  1  0  0  0
 45 68  1  0  0  0
M  END
$$$$
