5tzg_ligand
  -I-interpret- 

 68 74  0  0  0  0  0  0  0  0999 V2000
   17.6980   15.6920    1.6670 P   0  0  0  0  0
   17.8800   14.4570    0.8620 O   0  0  0  0  0
   18.2850   16.8270    0.8260 O   0  0  0  0  0
   18.5140   15.6840    3.0580 O   0  0  0  0  0
   18.3560   14.4760    3.9120 C   0  0  0  0  0
   18.7350   14.8670    5.4110 C   0  0  0  0  0
   20.3560   14.8790    5.5730 O   0  0  0  0  0
   18.3080   15.9980    5.7280 C   0  0  0  0  0
   16.9160   15.7730    6.4040 O   0  0  0  0  0
   19.3450   16.4410    6.8080 C   0  0  0  0  0
   19.1400   15.7160    7.9640 O   0  0  0  0  0
   20.6480   15.9790    6.1910 C   0  0  0  0  0
   21.1660   16.9430    5.2130 N   0  0  0  0  0
   21.1560   17.2310    3.9040 C   0  0  0  0  0
   21.9370   18.3330    3.6880 N   0  0  0  0  0
   22.4320   18.7240    4.8800 C   0  0  0  0  0
   23.3710   19.8740    5.2590 C   0  0  0  0  0
   23.8190   20.6610    4.4050 O   0  0  0  0  0
   23.7280   20.0310    6.5990 N   0  0  0  0  0
   23.2320   19.1380    7.5860 C   0  0  0  0  0
   23.6220   19.3240    8.9570 N   0  0  0  0  0
   22.3440   18.0500    7.2390 N   0  0  0  0  0
   21.9580   17.8740    5.8290 C   0  0  0  0  0
   16.0240   17.0970    6.6660 P   0  0  0  0  0
   14.7370   16.9350    7.4020 O   0  0  0  0  0
   16.9080   18.0160    7.4870 O   0  0  0  0  0
   15.8330   17.6650    5.1760 O   0  0  0  0  0
   14.6370   17.1430    4.5740 C   0  0  0  0  0
   14.5620   17.5040    3.2650 C   0  0  0  0  0
   14.0860   18.9220    3.0650 O   0  0  0  0  0
   16.0000   17.4760    2.5160 C   0  0  0  0  0
   16.1250   16.0790    1.9290 O   0  0  0  0  0
   15.8710   18.3110    1.6420 C   0  0  0  0  0
   15.1260   17.7160    0.4760 O   0  0  0  0  0
   14.9080   19.5250    2.2620 C   0  0  0  0  0
   15.6400   20.4640    3.0380 N   0  0  0  0  0
   15.9550   20.5980    4.3530 C   0  0  0  0  0
   16.6810   21.7260    4.4650 N   0  0  0  0  0
   16.8040   22.2860    3.2330 C   0  0  0  0  0
   17.5040   23.5530    2.7960 C   0  0  0  0  0
   18.0730   24.2430    3.5870 O   0  0  0  0  0
   17.4740   23.9030    1.4370 N   0  0  0  0  0
   16.8160   23.0830    0.5140 C   0  0  0  0  0
   16.8110   23.4730   -0.8540 N   0  0  0  0  0
   16.1370   21.8720    0.9250 N   0  0  0  0  0
   16.1560   21.5010    2.3360 C   0  0  0  0  0
   18.1939   17.6561    1.3013 H   0  0  0  0  0
   19.0105   13.6799    3.5571 H   0  0  0  0  0
   17.3267   14.1199    3.8680 H   0  0  0  0  0
   18.2731   14.1257    6.0631 H   0  0  0  0  0
   18.1998   16.7141    4.9134 H   0  0  0  0  0
   19.2994   17.5012    7.0568 H   0  0  0  0  0
   19.7774   15.9881    8.6283 H   0  0  0  0  0
   21.4128   15.8615    6.9587 H   0  0  0  0  0
   20.6141   16.6776    3.1371 H   0  0  0  0  0
   24.2470   20.0894    9.2101 H   0  0  0  0  0
   21.9921   17.4170    7.9572 H   0  0  0  0  0
   17.7464   18.1388    7.0358 H   0  0  0  0  0
   13.7720   17.5456    5.1011 H   0  0  0  0  0
   14.6549   16.0551    4.6395 H   0  0  0  0  0
   13.8649   16.7730    2.8554 H   0  0  0  0  0
   16.8743   17.6821    3.1335 H   0  0  0  0  0
   16.8490   18.6701    1.3216 H   0  0  0  0  0
   15.0269   18.3792   -0.2110 H   0  0  0  0  0
   14.4360   20.0717    1.4456 H   0  0  0  0  0
   15.6741   19.9226    5.1611 H   0  0  0  0  0
   17.2798   24.3322   -1.1411 H   0  0  0  0  0
   15.6544   21.2892    0.2410 H   0  0  0  0  0
  1  2  2  0  0  0
  1  3  1  0  0  0
  1  4  1  0  0  0
  1 32  1  0  0  0
  4  5  1  0  0  0
  5  6  1  0  0  0
  6  7  1  0  0  0
  6  8  1  0  0  0
  7 12  1  0  0  0
  8  9  1  0  0  0
  8 10  1  0  0  0
  9 24  1  0  0  0
 10 11  1  0  0  0
 10 12  1  0  0  0
 12 13  1  0  0  0
 13 14  4  0  0  0
 13 23  4  0  0  0
 14 15  4  0  0  0
 15 16  4  0  0  0
 16 17  1  0  0  0
 16 23  4  0  0  0
 17 18  2  0  0  0
 17 19  1  0  0  0
 19 20  4  0  0  0
 20 21  2  0  0  0
 20 22  1  0  0  0
 22 23  1  0  0  0
 24 25  2  0  0  0
 24 26  1  0  0  0
 24 27  1  0  0  0
 27 28  1  0  0  0
 28 29  1  0  0  0
 29 30  1  0  0  0
 29 31  1  0  0  0
 30 35  1  0  0  0
 31 32  1  0  0  0
 31 33  1  0  0  0
 33 34  1  0  0  0
 33 35  1  0  0  0
 35 36  1  0  0  0
 36 37  4  0  0  0
 36 46  4  0  0  0
 37 38  4  0  0  0
 38 39  4  0  0  0
 39 40  1  0  0  0
 39 46  4  0  0  0
 40 41  2  0  0  0
 40 42  1  0  0  0
 42 43  4  0  0  0
 43 44  2  0  0  0
 43 45  1  0  0  0
 45 46  1  0  0  0
  3 47  1  0  0  0
  5 48  1  0  0  0
  5 49  1  0  0  0
  6 50  1  0  0  0
  8 51  1  0  0  0
 10 52  1  0  0  0
 11 53  1  0  0  0
 12 54  1  0  0  0
 14 55  1  0  0  0
 21 56  1  0  0  0
 22 57  1  0  0  0
 26 58  1  0  0  0
 28 59  1  0  0  0
 28 60  1  0  0  0
 29 61  1  0  0  0
 31 62  1  0  0  0
 33 63  1  0  0  0
 34 64  1  0  0  0
 35 65  1  0  0  0
 37 66  1  0  0  0
 44 67  1  0  0  0
 45 68  1  0  0  0
M  END
$$$$
