5vdo_ligand
  -I-interpret- 

 68 74  0  0  0  0  0  0  0  0999 V2000
  -25.1240   12.7540  -24.6590 O   0  0  0  0  0
  -25.0990   12.5660  -25.8240 C   0  0  0  0  0
  -24.8290   11.2660  -26.3320 N   0  0  0  0  0
  -24.7990   11.0400  -27.7690 C   0  0  0  0  0
  -24.5250    9.7190  -28.2890 N   0  0  0  0  0
  -25.0480   12.1550  -28.6980 N   0  0  0  0  0
  -25.3300   13.5070  -28.1730 C   0  0  0  0  0
  -25.3590   13.7290  -26.7990 C   0  0  0  0  0
  -25.6350   15.0380  -26.5940 N   0  0  0  0  0
  -25.7810   15.6480  -27.8410 C   0  0  0  0  0
  -25.5880   14.6960  -28.7970 N   0  0  0  0  0
  -25.6590   14.9200  -30.3030 C   0  0  0  0  0
  -24.4440   15.7420  -30.4800 O   0  0  0  0  0
  -24.8700   17.0180  -31.0850 C   0  0  0  0  0
  -24.9200   18.0920  -30.0310 C   0  0  0  0  0
  -26.0960   18.8790  -30.1790 O   0  0  0  0  0
  -26.4990   19.9410  -28.9220 P   0  0  0  0  0
  -28.1090   19.9810  -28.5680 O   0  0  0  0  0
  -25.8550   21.3250  -29.0460 O   0  0  0  0  0
  -25.8600   19.3360  -27.7020 O   0  0  0  0  0
  -26.1900   16.7870  -31.6840 C   0  0  0  0  0
  -26.0390   16.4180  -33.0950 O   0  0  0  0  0
  -26.7940   15.7010  -30.9620 C   0  0  0  0  0
  -27.5200   14.8650  -31.8410 O   0  0  0  0  0
  -29.0990   14.5170  -31.4730 P   0  0  0  0  0
  -29.2570   13.3620  -30.5080 O   0  0  0  0  0
  -29.7060   14.0230  -32.7690 O   0  0  0  0  0
  -30.0220   15.8770  -31.0540 O   0  0  0  0  0
  -29.9970   16.2830  -29.6650 C   0  0  0  0  0
  -30.6740   17.6240  -29.5140 C   0  0  0  0  0
  -30.9830   17.8300  -28.1340 O   0  0  0  0  0
  -29.6760   18.6950  -29.8760 C   0  0  0  0  0
  -30.3330   19.9390  -30.0700 O   0  0  0  0  0
  -28.8500   18.7280  -28.6740 C   0  0  0  0  0
  -29.8590   18.5740  -27.5510 C   0  0  0  0  0
  -29.6090   17.7480  -26.3350 N   0  0  0  0  0
  -29.3270   16.4220  -26.3250 C   0  0  0  0  0
  -29.1530   16.0350  -25.0540 N   0  0  0  0  0
  -29.3210   17.1350  -24.2370 C   0  0  0  0  0
  -29.6030   18.2040  -25.0330 C   0  0  0  0  0
  -29.8160   19.4280  -24.4480 N   0  0  0  0  0
  -29.7520   19.5850  -23.1200 C   0  0  0  0  0
  -29.4790   18.5710  -22.3230 N   0  0  0  0  0
  -29.2600   17.3430  -22.8140 C   0  0  0  0  0
  -28.9570   16.2120  -21.9120 N   0  0  0  0  0
  -24.3525    8.9444  -27.6483 H   0  0  0  0  0
  -25.0258   11.9938  -29.7049 H   0  0  0  0  0
  -26.0089   16.6990  -28.0186 H   0  0  0  0  0
  -25.7924   13.9426  -30.7666 H   0  0  0  0  0
  -24.1694   17.3545  -31.8492 H   0  0  0  0  0
  -24.0468   18.7354  -30.1386 H   0  0  0  0  0
  -24.9285   17.6232  -29.0470 H   0  0  0  0  0
  -26.2168   21.7776  -29.8114 H   0  0  0  0  0
  -26.8051   17.6852  -31.6292 H   0  0  0  0  0
  -26.9056   16.2685  -33.4800 H   0  0  0  0  0
  -27.4945   16.0751  -30.2154 H   0  0  0  0  0
  -29.6404   14.7116  -33.4347 H   0  0  0  0  0
  -28.9627   16.3609  -29.3301 H   0  0  0  0  0
  -30.5238   15.5427  -29.0628 H   0  0  0  0  0
  -31.5666   17.6578  -30.1386 H   0  0  0  0  0
  -29.1222   18.5081  -30.7960 H   0  0  0  0  0
  -29.6852   20.6093  -30.2995 H   0  0  0  0  0
  -28.0851   17.9515  -28.6620 H   0  0  0  0  0
  -29.9313   19.6052  -27.2053 H   0  0  0  0  0
  -29.2541   15.7794  -27.2024 H   0  0  0  0  0
  -29.9291   20.5705  -22.6893 H   0  0  0  0  0
  -28.7908   15.2825  -22.2977 H   0  0  0  0  0
  -28.9141   16.3610  -20.9039 H   0  0  0  0  0
  1  2  2  0  0  0
  2  3  1  0  0  0
  2  8  1  0  0  0
  3  4  4  0  0  0
  4  5  2  0  0  0
  4  6  1  0  0  0
  6  7  1  0  0  0
  7  8  4  0  0  0
  7 11  4  0  0  0
  8  9  4  0  0  0
  9 10  4  0  0  0
 10 11  4  0  0  0
 11 12  1  0  0  0
 12 13  1  0  0  0
 12 23  1  0  0  0
 13 14  1  0  0  0
 14 15  1  0  0  0
 14 21  1  0  0  0
 15 16  1  0  0  0
 16 17  1  0  0  0
 17 18  1  0  0  0
 17 19  1  0  0  0
 17 20  2  0  0  0
 18 34  1  0  0  0
 21 22  1  0  0  0
 21 23  1  0  0  0
 23 24  1  0  0  0
 24 25  1  0  0  0
 25 26  2  0  0  0
 25 27  1  0  0  0
 25 28  1  0  0  0
 28 29  1  0  0  0
 29 30  1  0  0  0
 30 31  1  0  0  0
 30 32  1  0  0  0
 31 35  1  0  0  0
 32 33  1  0  0  0
 32 34  1  0  0  0
 34 35  1  0  0  0
 35 36  1  0  0  0
 36 37  4  0  0  0
 36 40  4  0  0  0
 37 38  4  0  0  0
 38 39  4  0  0  0
 39 40  4  0  0  0
 39 44  4  0  0  0
 40 41  4  0  0  0
 41 42  4  0  0  0
 42 43  4  0  0  0
 43 44  4  0  0  0
 44 45  1  0  0  0
  5 46  1  0  0  0
  6 47  1  0  0  0
 10 48  1  0  0  0
 12 49  1  0  0  0
 14 50  1  0  0  0
 15 51  1  0  0  0
 15 52  1  0  0  0
 19 53  1  0  0  0
 21 54  1  0  0  0
 22 55  1  0  0  0
 23 56  1  0  0  0
 27 57  1  0  0  0
 29 58  1  0  0  0
 29 59  1  0  0  0
 30 60  1  0  0  0
 32 61  1  0  0  0
 33 62  1  0  0  0
 34 63  1  0  0  0
 35 64  1  0  0  0
 37 65  1  0  0  0
 42 66  1  0  0  0
 45 67  1  0  0  0
 45 68  1  0  0  0
M  END
$$$$
