5vdp_ligand
  -I-interpret- 

 68 74  0  0  0  0  0  0  0  0999 V2000
   -2.2850   26.8170   61.5970 C   0  0  0  0  0
   -3.2710   30.3060   61.3750 N   0  0  0  0  0
   -2.7340   29.0160   61.0210 C   0  0  0  0  0
   -2.7660   28.0180   61.8970 N   0  0  0  0  0
   -1.7580   26.5560   60.4160 N   0  0  0  0  0
   -1.6920   27.5150   59.4790 C   0  0  0  0  0
   -2.1800   28.7760   59.7510 C   0  0  0  0  0
   -1.9820   29.5250   58.6420 N   0  0  0  0  0
   -1.3920   28.7670   57.7220 C   0  0  0  0  0
   -1.2070   27.5480   58.2110 N   0  0  0  0  0
   -0.5890   26.5010   57.5110 C   0  0  0  0  0
   -1.5450   25.5510   56.8400 C   0  0  0  0  0
   -1.1070   24.1930   57.0100 O   0  0  0  0  0
   -1.5000   25.9700   55.4320 C   0  0  0  0  0
   -0.1330   26.4720   55.2240 C   0  0  0  0  0
   -0.1120   27.4680   54.0780 C   0  0  0  0  0
   -0.6590   28.6470   54.6170 O   0  0  0  0  0
   -1.1920   29.8350   53.5820 P   0  0  0  0  0
   -0.6110   31.1930   53.8870 O   0  0  0  0  0
   -2.8770   29.9190   53.4850 O   0  0  0  0  0
   -3.6680   28.6880   53.4090 C   0  0  0  0  0
   -3.9120   28.2900   52.0590 C   0  0  0  0  0
   -4.1310   29.4580   51.2470 O   0  0  0  0  0
   -5.2010   27.4800   52.1470 C   0  0  0  0  0
   -4.9660   26.0520   52.3830 C   0  0  0  0  0
   -3.6680   25.9520   52.9800 O   0  0  0  0  0
   -3.2830   24.7320   54.0610 P   0  0  0  0  0
   -1.7470   24.8820   54.5370 O   0  0  0  0  0
   -4.2080   24.5440   55.2270 O   0  0  0  0  0
   -3.3720   23.4320   53.2760 O   0  0  0  0  0
   -5.8720   27.9970   53.3340 O   0  0  0  0  0
   -5.0140   29.0040   53.8820 C   0  0  0  0  0
   -5.1080   28.9020   55.3030 N   0  0  0  0  0
   -4.9820   27.7900   56.0250 C   0  0  0  0  0
   -5.1460   28.0870   57.3130 N   0  0  0  0  0
   -5.3710   29.9150   56.1210 C   0  0  0  0  0
   -5.3960   29.3980   57.4050 C   0  0  0  0  0
   -5.6700   30.3020   58.5830 C   0  0  0  0  0
   -5.9040   31.6950   58.3490 N   0  0  0  0  0
   -5.8680   32.2130   56.9940 C   0  0  0  0  0
   -6.0920   33.6370   56.7280 N   0  0  0  0  0
   -5.6040   31.3440   55.8570 N   0  0  0  0  0
   -5.6930   29.8280   59.6800 O   0  0  0  0  0
   -0.7230   29.4660   52.1960 O   0  0  0  0  0
    0.1700   27.1490   56.4340 O   0  0  0  0  0
   -2.3267   26.0263   62.3461 H   0  0  0  0  0
   -3.6763   30.4535   62.2993 H   0  0  0  0  0
   -3.2457   31.0713   60.7012 H   0  0  0  0  0
   -1.1055   29.0959   56.7231 H   0  0  0  0  0
   -0.0044   25.9184   58.2230 H   0  0  0  0  0
   -2.5545   25.5811   57.2499 H   0  0  0  0  0
   -1.7268   23.6015   56.5769 H   0  0  0  0  0
   -2.2687   26.7159   55.2299 H   0  0  0  0  0
    0.5723   25.6765   54.9836 H   0  0  0  0  0
   -0.6817   27.1115   53.2198 H   0  0  0  0  0
    0.8965   27.6261   53.6960 H   0  0  0  0  0
   -3.1263   27.9248   53.9678 H   0  0  0  0  0
   -3.0854   27.7310   51.6204 H   0  0  0  0  0
   -4.2949   29.1896   50.3400 H   0  0  0  0  0
   -5.7562   27.5697   51.2133 H   0  0  0  0  0
   -5.0140   25.4875   51.4518 H   0  0  0  0  0
   -5.7312   25.6311   53.0353 H   0  0  0  0  0
   -2.7986   23.4835   52.5078 H   0  0  0  0  0
   -5.2765   30.0196   53.5859 H   0  0  0  0  0
   -4.7775   26.7965   55.6260 H   0  0  0  0  0
   -6.2760   34.2773   57.5004 H   0  0  0  0  0
   -5.5811   31.7138   54.9067 H   0  0  0  0  0
   -1.0720   28.6033   51.9604 H   0  0  0  0  0
  4  1  4  0  0  0
  1  5  4  0  0  0
  3  2  1  0  0  0
  3  4  4  0  0  0
  3  7  4  0  0  0
  5  6  4  0  0  0
  6  7  4  0  0  0
  6 10  4  0  0  0
  7  8  4  0  0  0
  8  9  4  0  0  0
  9 10  4  0  0  0
 10 11  1  0  0  0
 11 12  1  0  0  0
 11 45  1  0  0  0
 12 13  1  0  0  0
 12 14  1  0  0  0
 14 15  1  0  0  0
 14 28  1  0  0  0
 15 16  1  0  0  0
 15 45  1  0  0  0
 16 17  1  0  0  0
 17 18  1  0  0  0
 18 19  2  0  0  0
 18 20  1  0  0  0
 18 44  1  0  0  0
 20 21  1  0  0  0
 21 22  1  0  0  0
 21 32  1  0  0  0
 22 23  1  0  0  0
 22 24  1  0  0  0
 24 25  1  0  0  0
 24 31  1  0  0  0
 25 26  1  0  0  0
 26 27  1  0  0  0
 27 28  1  0  0  0
 27 29  2  0  0  0
 27 30  1  0  0  0
 31 32  1  0  0  0
 32 33  1  0  0  0
 33 34  4  0  0  0
 33 36  4  0  0  0
 34 35  4  0  0  0
 35 37  4  0  0  0
 36 37  4  0  0  0
 36 42  1  0  0  0
 37 38  1  0  0  0
 38 39  1  0  0  0
 38 43  2  0  0  0
 39 40  4  0  0  0
 40 41  2  0  0  0
 40 42  1  0  0  0
  1 46  1  0  0  0
  2 47  1  0  0  0
  2 48  1  0  0  0
  9 49  1  0  0  0
 11 50  1  0  0  0
 12 51  1  0  0  0
 13 52  1  0  0  0
 14 53  1  0  0  0
 15 54  1  0  0  0
 16 55  1  0  0  0
 16 56  1  0  0  0
 21 57  1  0  0  0
 22 58  1  0  0  0
 23 59  1  0  0  0
 24 60  1  0  0  0
 25 61  1  0  0  0
 25 62  1  0  0  0
 30 63  1  0  0  0
 32 64  1  0  0  0
 34 65  1  0  0  0
 41 66  1  0  0  0
 42 67  1  0  0  0
 44 68  1  0  0  0
M  END
$$$$
