5vdq_ligand
  -I-interpret- 

 71 76  0  0  0  0  0  0  0  0999 V2000
  -25.5270   -7.2980  -27.1750 C   0  0  0  0  0
  -27.2870   -8.4340  -30.6570 C   0  0  0  0  0
  -28.4660  -12.2090  -24.7870 C   0  0  0  0  0
  -24.6800   -9.6550  -24.4230 C   0  0  0  0  0
  -24.6210  -11.7150  -25.8380 C   0  0  0  0  0
  -25.1550   -9.4480  -26.9110 C   0  0  0  0  0
  -25.0270   -8.8310  -25.6700 C   0  0  0  0  0
  -25.6570   -8.6880  -29.1130 C   0  0  0  0  0
  -26.0600   -7.3130  -30.9140 C   0  0  0  0  0
  -27.1570   -8.8710  -29.4410 C   0  0  0  0  0
  -28.9760  -12.3970  -26.2040 C   0  0  0  0  0
  -29.7510  -12.0260  -23.7310 C   0  0  0  0  0
  -28.4010   -9.1620  -23.5880 N   0  0  0  0  0
  -24.5710   -9.1220  -23.3630 O   0  0  0  0  0
  -24.4870  -11.0720  -24.5380 N   0  0  0  0  0
  -24.4320  -13.1160  -25.9640 N   0  0  0  0  0
  -24.9550  -10.9110  -27.0300 N   0  0  0  0  0
  -25.2570   -7.5170  -25.8430 N   0  0  0  0  0
  -25.4630   -8.4970  -27.8170 N   0  0  0  0  0
  -25.2390   -7.3960  -29.9420 O   0  0  0  0  0
  -26.6280   -5.9150  -30.9820 C   0  0  0  0  0
  -26.4310   -5.2820  -29.6910 O   0  0  0  0  0
  -27.1620   -9.5160  -31.5800 O   0  0  0  0  0
  -27.5160  -10.3530  -29.3680 O   0  0  0  0  0
  -28.7150  -10.7940  -28.3000 P   0  0  0  0  0
  -28.0810  -11.7980  -27.1190 O   0  0  0  0  0
  -30.1350  -13.3280  -23.1270 O   0  0  0  0  0
  -30.5830  -14.6660  -24.1290 P   0  0  0  0  0
  -31.2790  -14.1770  -25.3710 O   0  0  0  0  0
  -31.5040  -15.5540  -23.3700 O   0  0  0  0  0
  -29.3320  -15.4550  -24.5280 O   0  0  0  0  0
  -29.3810  -11.2170  -22.8150 C   0  0  0  0  0
  -28.9990  -11.9690  -21.5560 O   0  0  0  0  0
  -28.1230  -10.4480  -23.3760 C   0  0  0  0  0
  -28.2530   -8.1290  -22.6640 C   0  0  0  0  0
  -27.8260   -8.0910  -21.3510 N   0  0  0  0  0
  -27.7920   -6.9590  -20.7190 C   0  0  0  0  0
  -28.1550   -5.8320  -21.2900 N   0  0  0  0  0
  -28.5790   -5.7970  -22.5580 C   0  0  0  0  0
  -28.9800   -4.5320  -23.1790 N   0  0  0  0  0
  -28.6320   -6.9940  -23.2800 C   0  0  0  0  0
  -28.9950   -7.3120  -24.5290 N   0  0  0  0  0
  -28.8400   -8.6610  -24.6910 C   0  0  0  0  0
  -27.7600  -11.1340  -24.7180 O   0  0  0  0  0
  -29.7790  -11.4860  -29.0300 O   0  0  0  0  0
  -29.2920   -9.5060  -27.6250 O   0  0  0  0  0
  -25.7521   -6.3354  -27.6343 H   0  0  0  0  0
  -28.2659   -7.9774  -30.8032 H   0  0  0  0  0
  -27.8729  -13.0841  -24.5213 H   0  0  0  0  0
  -25.0679   -9.5681  -29.3708 H   0  0  0  0  0
  -25.5587   -7.5235  -31.8587 H   0  0  0  0  0
  -27.8089   -8.3412  -28.7464 H   0  0  0  0  0
  -29.9556  -11.9286  -26.2993 H   0  0  0  0  0
  -29.0530  -13.4625  -26.4206 H   0  0  0  0  0
  -30.6197  -11.6433  -24.2666 H   0  0  0  0  0
  -24.2017  -13.6754  -25.1428 H   0  0  0  0  0
  -25.0484  -11.3644  -27.9389 H   0  0  0  0  0
  -27.6905   -5.9536  -31.2221 H   0  0  0  0  0
  -26.1233   -5.3430  -31.7606 H   0  0  0  0  0
  -26.7866   -4.3906  -29.7153 H   0  0  0  0  0
  -27.8662  -10.1499  -31.4255 H   0  0  0  0  0
  -30.6872  -13.6034  -25.8633 H   0  0  0  0  0
  -28.7369  -14.8828  -25.0179 H   0  0  0  0  0
  -30.1898  -10.5332  -22.5572 H   0  0  0  0  0
  -28.7246  -11.3432  -20.8817 H   0  0  0  0  0
  -27.2999  -10.4853  -22.6625 H   0  0  0  0  0
  -27.4523   -6.9416  -19.6834 H   0  0  0  0  0
  -28.9376   -3.6649  -22.6434 H   0  0  0  0  0
  -29.3016   -4.5184  -24.1469 H   0  0  0  0  0
  -29.0526   -9.2199  -25.6023 H   0  0  0  0  0
  -28.5917   -9.0552  -27.1475 H   0  0  0  0  0
  1 18  4  0  0  0
 19  1  4  0  0  0
  2  9  1  0  0  0
 10  2  1  0  0  0
  2 23  1  0  0  0
  3 11  1  0  0  0
 12  3  1  0  0  0
  3 44  1  0  0  0
  7  4  1  0  0  0
  4 14  2  0  0  0
  4 15  1  0  0  0
  5 15  4  0  0  0
  5 16  2  0  0  0
 17  5  1  0  0  0
  6  7  4  0  0  0
  6 17  1  0  0  0
 19  6  4  0  0  0
  7 18  4  0  0  0
 10  8  1  0  0  0
  8 19  1  0  0  0
  8 20  1  0  0  0
 20  9  1  0  0  0
  9 21  1  0  0  0
 24 10  1  0  0  0
 11 26  1  0  0  0
 12 27  1  0  0  0
 32 12  1  0  0  0
 34 13  1  0  0  0
 13 35  4  0  0  0
 13 43  4  0  0  0
 21 22  1  0  0  0
 25 24  1  0  0  0
 26 25  1  0  0  0
 25 45  2  0  0  0
 25 46  1  0  0  0
 27 28  1  0  0  0
 28 29  1  0  0  0
 28 30  2  0  0  0
 28 31  1  0  0  0
 32 33  1  0  0  0
 32 34  1  0  0  0
 34 44  1  0  0  0
 35 36  4  0  0  0
 35 41  4  0  0  0
 36 37  4  0  0  0
 37 38  4  0  0  0
 38 39  4  0  0  0
 39 40  1  0  0  0
 39 41  4  0  0  0
 41 42  4  0  0  0
 42 43  4  0  0  0
  1 47  1  0  0  0
  2 48  1  0  0  0
  3 49  1  0  0  0
  8 50  1  0  0  0
  9 51  1  0  0  0
 10 52  1  0  0  0
 11 53  1  0  0  0
 11 54  1  0  0  0
 12 55  1  0  0  0
 16 56  1  0  0  0
 17 57  1  0  0  0
 21 58  1  0  0  0
 21 59  1  0  0  0
 22 60  1  0  0  0
 23 61  1  0  0  0
 29 62  1  0  0  0
 31 63  1  0  0  0
 32 64  1  0  0  0
 33 65  1  0  0  0
 34 66  1  0  0  0
 37 67  1  0  0  0
 40 68  1  0  0  0
 40 69  1  0  0  0
 43 70  1  0  0  0
 46 71  1  0  0  0
M  END
$$$$
