5WAD_LIGAND
  -I-interpret- 

 32 33  0  0  0  0  0  0  0  0999 V2000
  -62.6310  -10.5770  -39.6710 B   0  0  0  0  0
  -64.1090  -10.8440  -39.0740 C   0  0  0  0  0
  -64.9930   -9.8070  -39.5310 N   0  0  0  0  0
  -62.4080   -9.0800  -39.8910 O   0  0  0  0  0
  -62.3920  -11.3420  -40.8930 O   0  0  0  0  0
  -66.5750   -9.7280  -39.1990 S   0  0  0  0  0
  -67.0500  -10.8100  -38.3640 O   0  0  0  0  0
  -67.2310   -9.6910  -40.4660 O   0  0  0  0  0
  -66.7980   -8.3950  -38.3510 C   0  0  0  0  0
  -66.6530   -8.4320  -36.9650 C   0  0  0  0  0
  -66.8750   -7.2840  -36.1920 C   0  0  0  0  0
  -67.2600   -6.1170  -36.8550 C   0  0  0  0  0
  -67.3870   -6.1070  -38.2020 N   0  0  0  0  0
  -67.1680   -7.1960  -38.9650 C   0  0  0  0  0
  -67.5100   -4.8460  -36.1350 C   0  0  0  0  0
  -67.4920   -3.5560  -36.5430 N   0  0  0  0  0
  -67.7740   -2.7980  -35.3920 N   0  0  0  0  0
  -67.9830   -3.6420  -34.3030 N   0  0  0  0  0
  -67.7930   -4.9250  -34.8390 N   0  0  0  0  0
  -62.7130  -10.7100  -42.3620 P   0  0  0  0  0
  -63.9400   -9.8640  -42.0220 O   0  0  0  0  0
  -62.9250  -11.8560  -43.3360 O   0  0  0  0  0
  -61.5500   -9.9620  -42.9450 O   0  0  0  0  0
  -64.0713  -10.8410  -37.9847 H   0  0  0  0  0
  -64.4730  -11.8135  -39.4141 H   0  0  0  0  0
  -64.5938   -9.0660  -40.1072 H   0  0  0  0  0
  -62.5731   -8.6091  -39.0709 H   0  0  0  0  0
  -66.3641   -9.3631  -36.4775 H   0  0  0  0  0
  -66.7512   -7.3017  -35.1092 H   0  0  0  0  0
  -67.2782   -7.1419  -40.0481 H   0  0  0  0  0
  -64.6256  -10.4286  -41.6575 H   0  0  0  0  0
  -63.6609  -12.3957  -43.0381 H   0  0  0  0  0
  1  2  1  0  0  0
  1  4  1  0  0  0
  1  5  1  0  0  0
  2  3  1  0  0  0
  3  6  1  0  0  0
  5 20  1  0  0  0
  6  7  2  0  0  0
  6  8  2  0  0  0
  6  9  1  0  0  0
  9 10  4  0  0  0
  9 14  4  0  0  0
 10 11  4  0  0  0
 11 12  4  0  0  0
 12 13  4  0  0  0
 12 15  1  0  0  0
 13 14  4  0  0  0
 15 16  4  0  0  0
 15 19  4  0  0  0
 16 17  4  0  0  0
 17 18  4  0  0  0
 18 19  4  0  0  0
 20 21  1  0  0  0
 20 22  1  0  0  0
 20 23  2  0  0  0
  2 24  1  0  0  0
  2 25  1  0  0  0
  3 26  1  0  0  0
  4 27  1  0  0  0
 10 28  1  0  0  0
 11 29  1  0  0  0
 14 30  1  0  0  0
 21 31  1  0  0  0
 22 32  1  0  0  0
M  END
$$$$
