5xbt_ligand
  -I-interpret- 

 68 74  0  0  0  0  0  0  0  0999 V2000
   39.4670  -91.8700   38.9390 P   0  0  0  0  0
   39.2310  -92.6950   40.1740 O   0  0  0  0  0
   38.4030  -91.7510   37.8850 O   0  0  0  0  0
   39.8570  -90.3940   39.4170 O   0  0  0  0  0
   40.3430  -89.4430   38.4810 C   0  0  0  0  0
   40.7320  -88.1830   39.2320 C   0  0  0  0  0
   39.7320  -87.8700   40.1960 O   0  0  0  0  0
   42.0150  -88.3780   40.0090 C   0  0  0  0  0
   43.1150  -87.8480   39.2900 O   0  0  0  0  0
   41.8150  -87.6120   41.2920 C   0  0  0  0  0
   42.3800  -86.3140   41.1470 O   0  0  0  0  0
   40.3200  -87.4620   41.4300 C   0  0  0  0  0
   39.8300  -88.3330   42.5170 N   0  0  0  0  0
   38.8220  -89.2090   42.4090 C   0  0  0  0  0
   38.6090  -89.8490   43.5810 N   0  0  0  0  0
   39.4960  -89.3750   44.4660 C   0  0  0  0  0
   39.8120  -89.6240   45.8850 C   0  0  0  0  0
   39.1710  -90.4620   46.5470 O   0  0  0  0  0
   40.8050  -88.9260   46.4370 N   0  0  0  0  0
   41.5120  -88.0180   45.7440 C   0  0  0  0  0
   42.5030  -87.3510   46.3770 N   0  0  0  0  0
   41.2780  -87.7390   44.4390 N   0  0  0  0  0
   40.3000  -88.3750   43.7610 C   0  0  0  0  0
   44.4440  -88.7260   39.1710 P   0  0  0  0  0
   45.2160  -88.5930   40.4530 O   0  0  0  0  0
   45.0860  -88.4220   37.8460 O   0  0  0  0  0
   43.8330  -90.1990   39.1030 O   0  0  0  0  0
   43.6030  -90.7990   37.8370 C   0  0  0  0  0
   43.2230  -92.2570   38.0390 C   0  0  0  0  0
   44.2720  -92.9700   38.6930 O   0  0  0  0  0
   42.0190  -92.4110   38.9440 C   0  0  0  0  0
   40.8020  -92.3780   38.2150 O   0  0  0  0  0
   42.2300  -93.7700   39.5530 C   0  0  0  0  0
   41.7210  -94.7410   38.6440 O   0  0  0  0  0
   43.7330  -93.9150   39.6170 C   0  0  0  0  0
   44.2170  -93.6180   40.9860 N   0  0  0  0  0
   45.1100  -92.6750   41.3170 C   0  0  0  0  0
   45.3450  -92.6640   42.6490 N   0  0  0  0  0
   44.5890  -93.6240   43.1930 C   0  0  0  0  0
   44.3550  -94.1500   44.5520 C   0  0  0  0  0
   44.9460  -93.6720   45.5370 O   0  0  0  0  0
   43.4910  -95.1540   44.6970 N   0  0  0  0  0
   42.8400  -95.6890   43.6550 C   0  0  0  0  0
   41.9810  -96.7050   43.8850 N   0  0  0  0  0
   43.0040  -95.2600   42.3840 N   0  0  0  0  0
   43.8490  -94.2490   42.0960 C   0  0  0  0  0
   40.0096  -92.6599   40.7345 H   0  0  0  0  0
   39.5700  -89.2149   37.7471 H   0  0  0  0  0
   41.2096  -89.8462   37.9570 H   0  0  0  0  0
   40.8499  -87.3939   38.4893 H   0  0  0  0  0
   42.2283  -89.4321   40.1863 H   0  0  0  0  0
   42.2723  -88.1112   42.1463 H   0  0  0  0  0
   42.2565  -85.8197   41.9607 H   0  0  0  0  0
   40.0588  -86.4298   41.6632 H   0  0  0  0  0
   38.2498  -89.3827   41.4977 H   0  0  0  0  0
   42.6998  -87.5420   47.3594 H   0  0  0  0  0
   41.8481  -87.0397   43.9633 H   0  0  0  0  0
   44.4473  -88.5609   37.1429 H   0  0  0  0  0
   44.5074  -90.7363   37.2319 H   0  0  0  0  0
   42.7945  -90.2769   37.3253 H   0  0  0  0  0
   43.0177  -92.6438   37.0408 H   0  0  0  0  0
   41.9385  -91.6060   39.6745 H   0  0  0  0  0
   41.7484  -93.8919   40.5232 H   0  0  0  0  0
   41.8451  -95.6187   39.0125 H   0  0  0  0  0
   44.0407  -94.9308   39.3690 H   0  0  0  0  0
   45.5863  -92.0025   40.6036 H   0  0  0  0  0
   41.8398  -97.0483   44.8351 H   0  0  0  0  0
   42.4809  -95.7075   41.6313 H   0  0  0  0  0
  1  2  1  0  0  0
  1  3  2  0  0  0
  1  4  1  0  0  0
  1 32  1  0  0  0
  4  5  1  0  0  0
  5  6  1  0  0  0
  6  7  1  0  0  0
  6  8  1  0  0  0
  7 12  1  0  0  0
  8  9  1  0  0  0
  8 10  1  0  0  0
  9 24  1  0  0  0
 10 11  1  0  0  0
 10 12  1  0  0  0
 12 13  1  0  0  0
 13 14  4  0  0  0
 13 23  4  0  0  0
 14 15  4  0  0  0
 15 16  4  0  0  0
 16 17  1  0  0  0
 16 23  4  0  0  0
 17 18  2  0  0  0
 17 19  1  0  0  0
 19 20  4  0  0  0
 20 21  2  0  0  0
 20 22  1  0  0  0
 22 23  1  0  0  0
 24 25  2  0  0  0
 24 26  1  0  0  0
 24 27  1  0  0  0
 27 28  1  0  0  0
 28 29  1  0  0  0
 29 30  1  0  0  0
 29 31  1  0  0  0
 30 35  1  0  0  0
 31 32  1  0  0  0
 31 33  1  0  0  0
 33 34  1  0  0  0
 33 35  1  0  0  0
 35 36  1  0  0  0
 36 37  4  0  0  0
 36 46  4  0  0  0
 37 38  4  0  0  0
 38 39  4  0  0  0
 39 40  1  0  0  0
 39 46  4  0  0  0
 40 41  2  0  0  0
 40 42  1  0  0  0
 42 43  4  0  0  0
 43 44  2  0  0  0
 43 45  1  0  0  0
 45 46  1  0  0  0
  2 47  1  0  0  0
  5 48  1  0  0  0
  5 49  1  0  0  0
  6 50  1  0  0  0
  8 51  1  0  0  0
 10 52  1  0  0  0
 11 53  1  0  0  0
 12 54  1  0  0  0
 14 55  1  0  0  0
 21 56  1  0  0  0
 22 57  1  0  0  0
 26 58  1  0  0  0
 28 59  1  0  0  0
 28 60  1  0  0  0
 29 61  1  0  0  0
 31 62  1  0  0  0
 33 63  1  0  0  0
 34 64  1  0  0  0
 35 65  1  0  0  0
 37 66  1  0  0  0
 44 67  1  0  0  0
 45 68  1  0  0  0
M  END
$$$$
