5y62_ligand
  -I-interpret- 

 37 39  0  0  0  0  0  0  0  0999 V2000
   13.6660   -9.3610   -2.4760 P   0  0  0  0  0
   14.4080   -9.8630   -3.6990 O   0  0  0  0  0
   14.6970   -9.1230   -1.4100 O   0  0  0  0  0
   13.0080   -8.0470   -2.8000 O   0  0  0  0  0
   12.5530  -10.4160   -1.9830 O   0  0  0  0  0
   11.2090  -10.0690   -1.5730 C   0  0  0  0  0
   10.6120  -11.2230   -0.8240 C   0  0  0  0  0
   10.5860  -10.9320    0.5810 O   0  0  0  0  0
    9.1760  -11.4890   -1.0330 C   0  0  0  0  0
    8.8840  -12.2400   -2.1940 O   0  0  0  0  0
    8.9250  -12.4060    0.0590 C   0  0  0  0  0
    9.4890  -13.6860   -0.1530 O   0  0  0  0  0
    9.6200  -11.7960    1.1730 C   0  0  0  0  0
    8.7260  -11.0510    1.9600 N   0  0  0  0  0
    8.0190  -10.0050    1.5510 C   0  0  0  0  0
    7.2590   -9.5330    2.5820 N   0  0  0  0  0
    7.4950  -10.3100    3.6880 C   0  0  0  0  0
    7.0140  -10.3180    5.0350 C   0  0  0  0  0
    6.1900   -9.4910    5.4200 O   0  0  0  0  0
    7.4880  -11.2660    5.8670 N   0  0  0  0  0
    8.3730  -12.1730    5.4710 C   0  0  0  0  0
    8.8150  -13.1160    6.3800 N   0  0  0  0  0
    8.8490  -12.2040    4.2230 N   0  0  0  0  0
    8.4350  -11.2910    3.3070 C   0  0  0  0  0
   13.7810  -10.0279   -4.4070 H   0  0  0  0  0
   12.3450   -8.1818   -3.4811 H   0  0  0  0  0
   10.6027   -9.8487   -2.4516 H   0  0  0  0  0
   11.2371   -9.1893   -0.9300 H   0  0  0  0  0
   11.2305  -12.0485   -1.1763 H   0  0  0  0  0
    8.6145  -10.5574   -1.1034 H   0  0  0  0  0
    7.9351  -12.3703   -2.2592 H   0  0  0  0  0
    7.8545  -12.5585    0.1960 H   0  0  0  0  0
    9.2923  -14.2496    0.5988 H   0  0  0  0  0
   10.0768  -12.5414    1.8240 H   0  0  0  0  0
    8.0417   -9.5864    0.5448 H   0  0  0  0  0
    8.4614  -13.1071    7.3367 H   0  0  0  0  0
    9.5274  -12.9177    3.9567 H   0  0  0  0  0
  1  2  1  0  0  0
  1  3  2  0  0  0
  1  4  1  0  0  0
  1  5  1  0  0  0
  5  6  1  0  0  0
  6  7  1  0  0  0
  7  8  1  0  0  0
  7  9  1  0  0  0
  8 13  1  0  0  0
  9 10  1  0  0  0
  9 11  1  0  0  0
 11 12  1  0  0  0
 11 13  1  0  0  0
 13 14  1  0  0  0
 14 15  4  0  0  0
 14 24  4  0  0  0
 15 16  4  0  0  0
 16 17  4  0  0  0
 17 18  1  0  0  0
 17 24  4  0  0  0
 18 19  2  0  0  0
 18 20  1  0  0  0
 20 21  4  0  0  0
 21 22  2  0  0  0
 21 23  1  0  0  0
 23 24  1  0  0  0
  2 25  1  0  0  0
  4 26  1  0  0  0
  6 27  1  0  0  0
  6 28  1  0  0  0
  7 29  1  0  0  0
  9 30  1  0  0  0
 10 31  1  0  0  0
 11 32  1  0  0  0
 12 33  1  0  0  0
 13 34  1  0  0  0
 15 35  1  0  0  0
 22 36  1  0  0  0
 23 37  1  0  0  0
M  END
$$$$
