5y6f_ligand
  -I-interpret- 

 68 74  0  0  0  0  0  0  0  0999 V2000
   -6.9130   -8.3800   30.1010 P   0  0  0  0  0
   -7.3810   -9.6250   29.2060 O   0  0  0  0  0
   -5.4900   -8.0870   29.8590 O   0  0  0  0  0
   -7.8750   -7.1530   29.7960 O   0  0  0  0  0
   -7.3850   -5.9010   30.2550 C   0  0  0  0  0
   -8.4930   -4.8710   30.4510 C   0  0  0  0  0
   -9.1060   -4.5560   29.2080 O   0  0  0  0  0
   -9.6320   -5.4050   31.3360 C   0  0  0  0  0
   -9.4230   -5.0980   32.7060 O   0  0  0  0  0
  -10.8420   -4.6280   30.8290 C   0  0  0  0  0
  -10.7610   -3.3060   31.3210 O   0  0  0  0  0
  -10.5380   -4.5290   29.3210 C   0  0  0  0  0
  -11.1360   -5.5940   28.5210 N   0  0  0  0  0
  -10.4830   -6.6710   27.9960 C   0  0  0  0  0
  -11.3250   -7.4040   27.3220 N   0  0  0  0  0
  -12.5720   -6.8270   27.3900 C   0  0  0  0  0
  -13.8540   -7.1390   26.8830 C   0  0  0  0  0
  -14.1180   -8.1080   26.1820 O   0  0  0  0  0
  -14.8460   -6.3010   27.1720 N   0  0  0  0  0
  -14.6520   -5.2210   27.9430 C   0  0  0  0  0
  -15.7360   -4.4590   28.2030 N   0  0  0  0  0
  -13.4940   -4.9140   28.4310 N   0  0  0  0  0
  -12.4430   -5.6740   28.1580 C   0  0  0  0  0
  -10.2610   -5.8980   33.8640 P   0  0  0  0  0
  -11.7780   -5.8550   33.4020 O   0  0  0  0  0
   -9.9280   -5.2690   35.1600 O   0  0  0  0  0
   -9.8340   -7.4550   33.8180 O   0  0  0  0  0
   -8.4970   -7.7950   34.1900 C   0  0  0  0  0
   -8.2320   -9.2240   33.7220 C   0  0  0  0  0
   -9.3170  -10.0670   34.0830 O   0  0  0  0  0
   -8.2300   -9.3270   32.1820 C   0  0  0  0  0
   -7.0320   -8.7720   31.6620 O   0  0  0  0  0
   -8.2970  -10.8360   31.9920 C   0  0  0  0  0
   -7.0000  -11.3550   32.1540 O   0  0  0  0  0
   -9.2010  -11.2090   33.2120 C   0  0  0  0  0
  -10.5410  -11.4090   32.7610 N   0  0  0  0  0
  -11.5800  -10.5340   32.9370 C   0  0  0  0  0
  -12.6700  -11.0230   32.3850 N   0  0  0  0  0
  -12.3400  -12.2510   31.8680 C   0  0  0  0  0
  -13.0570  -13.1730   31.1720 C   0  0  0  0  0
  -14.2460  -12.9980   30.9220 O   0  0  0  0  0
  -12.3970  -14.2390   30.7550 N   0  0  0  0  0
  -11.0960  -14.4240   31.0220 C   0  0  0  0  0
  -10.4940  -15.5730   30.5780 N   0  0  0  0  0
  -10.4050  -13.5590   31.6670 N   0  0  0  0  0
  -10.9990  -12.4840   32.0760 C   0  0  0  0  0
   -8.3090   -9.8062   29.3722 H   0  0  0  0  0
   -6.6980   -5.5143   29.5023 H   0  0  0  0  0
   -6.9044   -6.0631   31.2198 H   0  0  0  0  0
   -8.0128   -4.0079   30.9120 H   0  0  0  0  0
   -9.7272   -6.4893   31.2781 H   0  0  0  0  0
  -11.7982   -5.0753   31.1004 H   0  0  0  0  0
  -11.5172   -2.8031   31.0099 H   0  0  0  0  0
  -10.9774   -3.6136   28.9247 H   0  0  0  0  0
   -9.4216   -6.8855   28.1207 H   0  0  0  0  0
  -16.6448   -4.7168   27.8183 H   0  0  0  0  0
  -13.3901   -4.0903   29.0236 H   0  0  0  0  0
  -11.8650   -6.2926   32.5520 H   0  0  0  0  0
   -8.3744   -7.7216   35.2706 H   0  0  0  0  0
   -7.7888   -7.1076   33.7273 H   0  0  0  0  0
   -7.2778   -9.5051   34.1676 H   0  0  0  0  0
   -9.0319   -8.7917   31.6736 H   0  0  0  0  0
   -8.6626  -11.1974   31.0308 H   0  0  0  0  0
   -7.0209  -12.3077   32.0377 H   0  0  0  0  0
   -8.7678  -12.0848   33.6952 H   0  0  0  0  0
  -11.5140   -9.5776   33.4557 H   0  0  0  0  0
  -11.0347  -16.2637   30.0574 H   0  0  0  0  0
   -9.4140  -13.7132   31.8531 H   0  0  0  0  0
  1  2  1  0  0  0
  1  3  2  0  0  0
  1  4  1  0  0  0
  1 32  1  0  0  0
  4  5  1  0  0  0
  5  6  1  0  0  0
  6  7  1  0  0  0
  6  8  1  0  0  0
  7 12  1  0  0  0
  8  9  1  0  0  0
  8 10  1  0  0  0
  9 24  1  0  0  0
 10 11  1  0  0  0
 10 12  1  0  0  0
 12 13  1  0  0  0
 13 14  4  0  0  0
 13 23  4  0  0  0
 14 15  4  0  0  0
 15 16  4  0  0  0
 16 17  1  0  0  0
 16 23  4  0  0  0
 17 18  2  0  0  0
 17 19  1  0  0  0
 19 20  4  0  0  0
 20 21  2  0  0  0
 20 22  1  0  0  0
 22 23  1  0  0  0
 24 25  1  0  0  0
 24 26  2  0  0  0
 24 27  1  0  0  0
 27 28  1  0  0  0
 28 29  1  0  0  0
 29 30  1  0  0  0
 29 31  1  0  0  0
 30 35  1  0  0  0
 31 32  1  0  0  0
 31 33  1  0  0  0
 33 34  1  0  0  0
 33 35  1  0  0  0
 35 36  1  0  0  0
 36 37  4  0  0  0
 36 46  4  0  0  0
 37 38  4  0  0  0
 38 39  4  0  0  0
 39 40  1  0  0  0
 39 46  4  0  0  0
 40 41  2  0  0  0
 40 42  1  0  0  0
 42 43  4  0  0  0
 43 44  2  0  0  0
 43 45  1  0  0  0
 45 46  1  0  0  0
  2 47  1  0  0  0
  5 48  1  0  0  0
  5 49  1  0  0  0
  6 50  1  0  0  0
  8 51  1  0  0  0
 10 52  1  0  0  0
 11 53  1  0  0  0
 12 54  1  0  0  0
 14 55  1  0  0  0
 21 56  1  0  0  0
 22 57  1  0  0  0
 25 58  1  0  0  0
 28 59  1  0  0  0
 28 60  1  0  0  0
 29 61  1  0  0  0
 31 62  1  0  0  0
 33 63  1  0  0  0
 34 64  1  0  0  0
 35 65  1  0  0  0
 37 66  1  0  0  0
 44 67  1  0  0  0
 45 68  1  0  0  0
M  END
$$$$
