5yij_ligand
  -I-interpret- 

 72 76  0  0  0  0  0  0  0  0999 V2000
  377.8580  -17.5370  337.1620 P   0  0  0  0  0
  378.3400  -18.7540  336.5360 O   0  0  0  0  0
  376.9290  -17.4510  338.2860 O   0  0  0  0  0
  377.1040  -17.1010  335.9230 O   0  0  0  0  0
  377.8060  -16.5590  334.8550 C   0  0  0  0  0
  377.6040  -17.1680  333.4710 C   0  0  0  0  0
  376.7410  -18.2540  333.3310 O   0  0  0  0  0
  377.0230  -16.1570  332.5660 C   0  0  0  0  0
  378.0670  -15.4500  331.9910 O   0  0  0  0  0
  376.3390  -16.9230  331.5250 C   0  0  0  0  0
  377.0520  -16.6470  330.3490 O   0  0  0  0  0
  376.4720  -18.3360  331.9540 C   0  0  0  0  0
  375.2240  -19.0590  331.6560 N   0  0  0  0  0
  375.0210  -19.9520  330.6920 C   0  0  0  0  0
  373.7700  -20.4170  330.7010 N   0  0  0  0  0
  373.1620  -19.8120  331.6790 C   0  0  0  0  0
  371.8410  -19.8580  332.2180 C   0  0  0  0  0
  370.9160  -20.6450  331.7050 N   0  0  0  0  0
  371.6030  -19.0830  333.2450 N   0  0  0  0  0
  372.5260  -18.2700  333.7590 C   0  0  0  0  0
  373.7550  -18.1880  333.3090 N   0  0  0  0  0
  374.1150  -18.9330  332.2960 C   0  0  0  0  0
  378.9000  -16.4000  337.3230 O   0  0  0  0  0
  378.4260  -14.9310  337.2200 P   0  0  0  0  0
  379.0230  -14.2810  336.0640 O   0  0  0  0  0
  376.9730  -14.9110  337.3490 O   0  0  0  0  0
  379.1300  -14.2050  338.4150 O   0  0  0  0  0
  380.5230  -14.3870  338.4390 C   0  0  0  0  0
  381.4040  -13.4870  339.3130 C   0  0  0  0  0
  381.2220  -12.1110  339.1470 O   0  0  0  0  0
  381.2430  -13.6510  340.7720 C   0  0  0  0  0
  382.4850  -13.3310  341.3280 O   0  0  0  0  0
  380.3690  -12.5730  341.2620 C   0  0  0  0  0
  380.7130  -12.2560  342.6070 O   0  0  0  0  0
  380.7320  -11.4880  340.3190 C   0  0  0  0  0
  379.5920  -10.6450  340.0290 N   0  0  0  0  0
  378.8160  -10.9060  339.0080 C   0  0  0  0  0
  377.7600  -10.1330  338.6970 C   0  0  0  0  0
  376.9440  -10.4780  337.5640 C   0  0  0  0  0
  376.2760   -9.6420  337.0800 O   0  0  0  0  0
  376.9710  -11.6950  337.1180 N   0  0  0  0  0
  377.4670   -9.0600  339.4370 C   0  0  0  0  0
  378.2710   -8.7920  340.5010 C   0  0  0  0  0
  379.3350   -9.6080  340.7740 C   0  0  0  0  0
  376.7765  -16.5285  338.5037 H   0  0  0  0  0
  378.8573  -16.7251  335.0899 H   0  0  0  0  0
  377.4502  -15.5322  334.7704 H   0  0  0  0  0
  378.6123  -17.5176  333.2491 H   0  0  0  0  0
  376.3509  -15.4657  333.0743 H   0  0  0  0  0
  378.5211  -14.9442  332.6689 H   0  0  0  0  0
  375.2857  -16.6933  331.3641 H   0  0  0  0  0
  376.6540  -17.1221  329.6159 H   0  0  0  0  0
  377.2596  -18.8857  331.4385 H   0  0  0  0  0
  375.7843  -20.2664  329.9802 H   0  0  0  0  0
  371.1374  -21.2384  330.9055 H   0  0  0  0  0
  369.9790  -20.6604  332.1076 H   0  0  0  0  0
  372.2432  -17.6378  334.6007 H   0  0  0  0  0
  376.7177  -15.3726  338.1511 H   0  0  0  0  0
  380.8419  -14.1700  337.4195 H   0  0  0  0  0
  380.6584  -15.3851  338.8557 H   0  0  0  0  0
  382.3756  -13.8287  338.9561 H   0  0  0  0  0
  380.8684  -14.6464  341.0107 H   0  0  0  0  0
  382.4396  -13.4207  342.2827 H   0  0  0  0  0
  379.3016  -12.7923  341.2862 H   0  0  0  0  0
  380.1420  -11.5528  342.9249 H   0  0  0  0  0
  381.4904  -10.8364  340.7530 H   0  0  0  0  0
  379.0323  -11.7774  338.3900 H   0  0  0  0  0
  376.3972  -11.9573  336.3165 H   0  0  0  0  0
  377.5660  -12.3902  337.5686 H   0  0  0  0  0
  376.6156   -8.4231  339.1971 H   0  0  0  0  0
  378.0681   -7.9289  341.1350 H   0  0  0  0  0
  379.9766   -9.3870  341.6270 H   0  0  0  0  0
  1  2  2  0  0  0
  1  3  1  0  0  0
  1  4  1  0  0  0
  1 23  1  0  0  0
  4  5  1  0  0  0
  5  6  1  0  0  0
  6  7  1  0  0  0
  6  8  1  0  0  0
  7 12  1  0  0  0
  8  9  1  0  0  0
  8 10  1  0  0  0
 10 11  1  0  0  0
 10 12  1  0  0  0
 12 13  1  0  0  0
 13 14  4  0  0  0
 13 22  4  0  0  0
 14 15  4  0  0  0
 15 16  4  0  0  0
 16 17  4  0  0  0
 16 22  4  0  0  0
 17 18  1  0  0  0
 17 19  4  0  0  0
 19 20  4  0  0  0
 20 21  4  0  0  0
 21 22  4  0  0  0
 23 24  1  0  0  0
 24 25  2  0  0  0
 24 26  1  0  0  0
 24 27  1  0  0  0
 27 28  1  0  0  0
 28 29  1  0  0  0
 29 30  1  0  0  0
 29 31  1  0  0  0
 30 35  1  0  0  0
 31 32  1  0  0  0
 31 33  1  0  0  0
 33 34  1  0  0  0
 33 35  1  0  0  0
 35 36  1  0  0  0
 36 37  4  0  0  0
 36 44  4  0  0  0
 37 38  4  0  0  0
 38 39  1  0  0  0
 38 42  4  0  0  0
 39 40  2  0  0  0
 39 41  1  0  0  0
 42 43  4  0  0  0
 43 44  4  0  0  0
  3 45  1  0  0  0
  5 46  1  0  0  0
  5 47  1  0  0  0
  6 48  1  0  0  0
  8 49  1  0  0  0
  9 50  1  0  0  0
 10 51  1  0  0  0
 11 52  1  0  0  0
 12 53  1  0  0  0
 14 54  1  0  0  0
 18 55  1  0  0  0
 18 56  1  0  0  0
 20 57  1  0  0  0
 26 58  1  0  0  0
 28 59  1  0  0  0
 28 60  1  0  0  0
 29 61  1  0  0  0
 31 62  1  0  0  0
 32 63  1  0  0  0
 33 64  1  0  0  0
 34 65  1  0  0  0
 35 66  1  0  0  0
 37 67  1  0  0  0
 41 68  1  0  0  0
 41 69  1  0  0  0
 42 70  1  0  0  0
 43 71  1  0  0  0
 44 72  1  0  0  0
M  END
$$$$
