5ymx_ligand
  -I-interpret- 

 42 44  0  0  0  0  0  0  0  0999 V2000
  -18.7050   24.6490   -8.7200 P   0  0  0  0  0
  -18.3760   24.2770  -10.1440 O   0  0  0  0  0
  -19.9840   24.0410   -8.2330 O   0  0  0  0  0
  -17.5680   24.4310   -7.7680 O   0  0  0  0  0
  -18.9460   26.2600   -8.6490 O   0  0  0  0  0
  -19.0250   27.3650   -9.8340 P   0  0  0  0  0
  -20.2060   27.0630  -10.7010 O   0  0  0  0  0
  -17.7000   27.5430  -10.5140 O   0  0  0  0  0
  -19.2960   28.6910   -8.9810 O   0  0  0  0  0
  -20.4920   28.8510   -8.2110 C   0  0  0  0  0
  -20.8490   30.3330   -8.1270 C   0  0  0  0  0
  -19.8150   31.0490   -7.4390 O   0  0  0  0  0
  -20.9980   30.9970   -9.4850 C   0  0  0  0  0
  -22.0490   31.9700   -9.3730 O   0  0  0  0  0
  -19.6730   31.7010   -9.6760 C   0  0  0  0  0
  -19.7780   32.8440  -10.5280 O   0  0  0  0  0
  -19.3450   32.1160   -8.2590 C   0  0  0  0  0
  -17.9000   32.2710   -8.0460 N   0  0  0  0  0
  -16.9350   31.3700   -8.3670 C   0  0  0  0  0
  -15.7130   31.8490   -8.0160 N   0  0  0  0  0
  -15.9210   33.0500   -7.4240 C   0  0  0  0  0
  -15.0720   34.0790   -6.8170 C   0  0  0  0  0
  -13.8370   33.9390   -6.7560 O   0  0  0  0  0
  -15.6790   35.1750   -6.3360 N   0  0  0  0  0
  -17.0040   35.3750   -6.3770 C   0  0  0  0  0
  -17.5040   36.5220   -5.8550 N   0  0  0  0  0
  -17.8550   34.4740   -6.9240 N   0  0  0  0  0
  -17.3560   33.3200   -7.4430 C   0  0  0  0  0
  -17.5498   24.6937  -10.3997 H   0  0  0  0  0
  -16.7734   24.8369   -8.1221 H   0  0  0  0  0
  -17.0267   27.7311   -9.8561 H   0  0  0  0  0
  -20.3328   28.4582   -7.2068 H   0  0  0  0  0
  -21.3071   28.3075   -8.6889 H   0  0  0  0  0
  -21.8045   30.3711   -7.6039 H   0  0  0  0  0
  -21.2324   30.3150  -10.3024 H   0  0  0  0  0
  -22.1684   32.4091  -10.2183 H   0  0  0  0  0
  -18.9202   31.0757  -10.1560 H   0  0  0  0  0
  -18.9151   33.2550  -10.6180 H   0  0  0  0  0
  -19.8036   33.0784   -8.0318 H   0  0  0  0  0
  -17.1150   30.4035   -8.8377 H   0  0  0  0  0
  -16.8753   37.2111   -5.4423 H   0  0  0  0  0
  -18.8579   34.6588   -6.9464 H   0  0  0  0  0
  1  2  1  0  0  0
  1  3  2  0  0  0
  1  4  1  0  0  0
  1  5  1  0  0  0
  5  6  1  0  0  0
  6  7  2  0  0  0
  6  8  1  0  0  0
  6  9  1  0  0  0
  9 10  1  0  0  0
 10 11  1  0  0  0
 11 12  1  0  0  0
 11 13  1  0  0  0
 12 17  1  0  0  0
 13 14  1  0  0  0
 13 15  1  0  0  0
 15 16  1  0  0  0
 15 17  1  0  0  0
 17 18  1  0  0  0
 18 19  4  0  0  0
 18 28  4  0  0  0
 19 20  4  0  0  0
 20 21  4  0  0  0
 21 22  1  0  0  0
 21 28  4  0  0  0
 22 23  2  0  0  0
 22 24  1  0  0  0
 24 25  4  0  0  0
 25 26  2  0  0  0
 25 27  1  0  0  0
 27 28  1  0  0  0
  2 29  1  0  0  0
  4 30  1  0  0  0
  8 31  1  0  0  0
 10 32  1  0  0  0
 10 33  1  0  0  0
 11 34  1  0  0  0
 13 35  1  0  0  0
 14 36  1  0  0  0
 15 37  1  0  0  0
 16 38  1  0  0  0
 17 39  1  0  0  0
 19 40  1  0  0  0
 26 41  1  0  0  0
 27 42  1  0  0  0
M  END
$$$$
