6aps_ligand
  -I-interpret- 

 45 46  0  0  0  0  0  0  0  0999 V2000
  131.9410  -40.9910   50.1580 O   0  0  0  0  0
  130.9900  -40.6130   49.0670 P   0  0  0  0  0
  130.0620  -41.8000   48.7070 O   0  0  0  0  0
  131.8250  -40.1530   47.8710 O   0  0  0  0  0
  130.0060  -39.2210   49.8000 C   0  0  0  0  0
  129.0110  -38.7950   48.8790 O   0  0  0  0  0
  127.7950  -39.3870   49.1760 C   0  0  0  0  0
  126.6510  -38.4630   48.7390 C   0  0  0  0  0
  126.4330  -37.3720   49.7370 C   0  0  0  0  0
  125.7860  -36.2700   49.1200 O   0  0  0  0  0
  125.9840  -35.2100   50.0080 C   0  0  0  0  0
  125.3080  -33.5620   49.4230 P   0  0  0  0  0
  125.7230  -32.7250   50.6190 O   0  0  0  0  0
  123.8310  -33.5220   49.1380 O   0  0  0  0  0
  125.8880  -33.1400   48.0860 O   0  0  0  0  0
  125.3580  -39.2610   48.7350 C   0  0  0  0  0
  125.0480  -40.0800   49.9010 N   0  0  0  0  0
  125.5080  -41.2930   50.3080 C   0  0  0  0  0
  124.8490  -41.6740   51.4120 N   0  0  0  0  0
  123.9360  -40.7310   51.6820 C   0  0  0  0  0
  124.0660  -39.7460   50.7070 C   0  0  0  0  0
  123.2390  -38.5680   50.6490 N   0  0  0  0  0
  122.2450  -38.4110   51.6330 C   0  0  0  0  0
  121.3950  -37.2990   51.6500 N   0  0  0  0  0
  122.0710  -39.4000   52.6550 N   0  0  0  0  0
  122.8760  -40.5650   52.7310 C   0  0  0  0  0
  122.6460  -41.3920   53.5840 O   0  0  0  0  0
  129.4619  -41.5345   48.0063 H   0  0  0  0  0
  131.2407  -39.9027   47.1516 H   0  0  0  0  0
  130.6722  -38.3870   50.0210 H   0  0  0  0  0
  129.5249  -39.5640   50.7160 H   0  0  0  0  0
  127.7298  -39.5603   50.2502 H   0  0  0  0  0
  127.7158  -40.3362   48.6461 H   0  0  0  0  0
  126.9092  -38.0542   47.7621 H   0  0  0  0  0
  127.3969  -37.0476   50.1291 H   0  0  0  0  0
  125.8071  -37.7472   50.5467 H   0  0  0  0  0
  127.0612  -35.0887   50.1224 H   0  0  0  0  0
  125.4543  -35.4623   50.9266 H   0  0  0  0  0
  126.6723  -32.7953   50.7435 H   0  0  0  0  0
  126.8462  -33.1275   48.1437 H   0  0  0  0  0
  125.4578  -39.9647   47.9086 H   0  0  0  0  0
  124.5623  -38.5176   48.6870 H   0  0  0  0  0
  126.2914  -41.8671   49.8133 H   0  0  0  0  0
  123.3697  -37.8693   49.9175 H   0  0  0  0  0
  120.6816  -37.2134   52.3740 H   0  0  0  0  0
  1  2  2  0  0  0
  2  3  1  0  0  0
  2  4  1  0  0  0
  2  5  1  0  0  0
  5  6  1  0  0  0
  6  7  1  0  0  0
  7  8  1  0  0  0
  8  9  1  0  0  0
  8 16  1  0  0  0
  9 10  1  0  0  0
 10 11  1  0  0  0
 11 12  1  0  0  0
 12 13  1  0  0  0
 12 14  2  0  0  0
 12 15  1  0  0  0
 16 17  1  0  0  0
 17 18  4  0  0  0
 17 21  4  0  0  0
 18 19  4  0  0  0
 19 20  4  0  0  0
 20 21  4  0  0  0
 20 26  1  0  0  0
 21 22  1  0  0  0
 22 23  1  0  0  0
 23 24  2  0  0  0
 23 25  4  0  0  0
 25 26  1  0  0  0
 26 27  2  0  0  0
  3 28  1  0  0  0
  4 29  1  0  0  0
  5 30  1  0  0  0
  5 31  1  0  0  0
  7 32  1  0  0  0
  7 33  1  0  0  0
  8 34  1  0  0  0
  9 35  1  0  0  0
  9 36  1  0  0  0
 11 37  1  0  0  0
 11 38  1  0  0  0
 13 39  1  0  0  0
 15 40  1  0  0  0
 16 41  1  0  0  0
 16 42  1  0  0  0
 18 43  1  0  0  0
 22 44  1  0  0  0
 24 45  1  0  0  0
M  END
$$$$
