6aqo_ligand
  -I-interpret- 

 48 49  0  0  0  0  0  0  0  0999 V2000
   -8.4510    1.4040  -46.2440 O   0  0  0  0  0
   -9.7950    2.0350  -45.9600 P   0  0  0  0  0
  -10.3970    1.4020  -44.7260 O   0  0  0  0  0
   -9.6170    3.5180  -45.7280 O   0  0  0  0  0
  -10.9390    1.7490  -47.4020 C   0  0  0  0  0
  -10.8640    2.8560  -48.4530 C   0  0  0  0  0
   -9.9280    2.4750  -49.4210 O   0  0  0  0  0
  -10.5120    1.9210  -50.5640 C   0  0  0  0  0
  -10.7220    3.0230  -51.6020 C   0  0  0  0  0
   -9.8770    2.7520  -52.6850 O   0  0  0  0  0
   -9.2600    3.8710  -53.2530 C   0  0  0  0  0
   -9.5290    3.8000  -54.7500 C   0  0  0  0  0
   -8.4220    4.9170  -55.7410 P   0  0  0  0  0
   -8.1230    6.1680  -54.9490 O   0  0  0  0  0
   -7.1370    4.2000  -56.0790 O   0  0  0  0  0
   -9.1360    5.2910  -57.0130 O   0  0  0  0  0
  -12.1650    3.1000  -52.1040 C   0  0  0  0  0
  -12.4940    1.9580  -52.9410 N   0  0  0  0  0
  -13.0310    0.7980  -52.5340 C   0  0  0  0  0
  -13.4480    0.2720  -51.2070 N   0  0  0  0  0
  -14.0110   -1.0760  -51.0900 C   0  0  0  0  0
  -14.4200   -1.5810  -49.7950 N   0  0  0  0  0
  -14.1660   -1.9050  -52.2680 N   0  0  0  0  0
  -13.7640   -1.3990  -53.5490 C   0  0  0  0  0
  -13.8890   -2.0780  -54.5120 O   0  0  0  0  0
  -13.1740    0.0100  -53.6620 C   0  0  0  0  0
  -12.7210    0.7280  -54.6950 N   0  0  0  0  0
  -12.3180    1.9050  -54.2480 C   0  0  0  0  0
   -8.5656    0.4623  -46.3911 H   0  0  0  0  0
  -10.5100    0.4602  -44.8736 H   0  0  0  0  0
  -11.9585    1.7252  -47.0172 H   0  0  0  0  0
  -10.6424    0.8159  -47.8810 H   0  0  0  0  0
  -10.5625    3.7948  -47.9884 H   0  0  0  0  0
  -11.8410    3.0035  -48.9132 H   0  0  0  0  0
  -11.4715    1.4731  -50.3053 H   0  0  0  0  0
   -9.8581    1.1511  -50.9736 H   0  0  0  0  0
  -10.4976    3.9813  -51.1335 H   0  0  0  0  0
   -8.1893    3.8720  -53.0486 H   0  0  0  0  0
   -9.6572    4.7930  -52.8285 H   0  0  0  0  0
  -10.5579    4.1184  -54.9178 H   0  0  0  0  0
   -9.3418    2.7758  -55.0727 H   0  0  0  0  0
   -7.6678    5.9307  -54.1378 H   0  0  0  0  0
   -6.6820    3.9617  -55.2680 H   0  0  0  0  0
  -12.2788    4.0084  -52.6956 H   0  0  0  0  0
  -12.8327    3.1028  -51.2424 H   0  0  0  0  0
  -13.3417    0.8519  -50.3747 H   0  0  0  0  0
  -14.8157   -2.5177  -49.7146 H   0  0  0  0  0
  -11.9054    2.7055  -54.8620 H   0  0  0  0  0
  1  2  1  0  0  0
  2  3  1  0  0  0
  2  4  2  0  0  0
  2  5  1  0  0  0
  5  6  1  0  0  0
  6  7  1  0  0  0
  7  8  1  0  0  0
  8  9  1  0  0  0
  9 10  1  0  0  0
  9 17  1  0  0  0
 10 11  1  0  0  0
 11 12  1  0  0  0
 12 13  1  0  0  0
 13 14  1  0  0  0
 13 15  1  0  0  0
 13 16  2  0  0  0
 17 18  1  0  0  0
 18 19  4  0  0  0
 18 28  4  0  0  0
 19 20  1  0  0  0
 19 26  4  0  0  0
 20 21  1  0  0  0
 21 22  2  0  0  0
 21 23  4  0  0  0
 23 24  1  0  0  0
 24 25  2  0  0  0
 24 26  1  0  0  0
 26 27  4  0  0  0
 27 28  4  0  0  0
  1 29  1  0  0  0
  3 30  1  0  0  0
  5 31  1  0  0  0
  5 32  1  0  0  0
  6 33  1  0  0  0
  6 34  1  0  0  0
  8 35  1  0  0  0
  8 36  1  0  0  0
  9 37  1  0  0  0
 11 38  1  0  0  0
 11 39  1  0  0  0
 12 40  1  0  0  0
 12 41  1  0  0  0
 14 42  1  0  0  0
 15 43  1  0  0  0
 17 44  1  0  0  0
 17 45  1  0  0  0
 20 46  1  0  0  0
 22 47  1  0  0  0
 28 48  1  0  0  0
M  END
$$$$
