6bh8_ligand
  -I-interpret- 

 70 72  0  0  0  0  0  0  0  0999 V2000
   -0.5130   18.3300  -43.7570 C   0  0  0  0  0
   -1.3990   17.3070  -43.4290 O   0  0  0  0  0
    0.5370   17.7890  -44.6880 C   0  0  0  0  0
    1.5610   18.7950  -44.8700 O   0  0  0  0  0
   -0.0320   17.4230  -46.0270 C   0  0  0  0  0
    1.0670   17.0630  -46.9270 O   0  0  0  0  0
   -0.7970   18.5460  -46.6340 C   0  0  0  0  0
   -1.4720   18.0650  -47.8640 O   0  0  0  0  0
   -1.8510   19.0930  -45.6900 C   0  0  0  0  0
   -1.2820   19.4560  -44.3700 O   0  0  0  0  0
   -2.4700   20.3230  -46.3180 C   0  0  0  0  0
   -2.3480   17.4960  -42.0960 P   0  0  0  0  0
   -3.2650   18.6750  -42.2970 O   0  0  0  0  0
   -3.1380   16.3030  -41.8950 O   0  0  0  0  0
   -1.3580   17.7670  -40.7140 N   0  0  0  0  0
   -1.8880   18.4940  -39.5780 C   0  0  0  0  0
   -1.8320   19.9790  -39.8600 C   0  0  0  0  0
   -2.7490   20.7000  -39.5100 O   0  0  0  0  0
   -1.0530   18.1770  -38.3370 C   0  0  0  0  0
   -1.3200   19.2580  -37.2430 C   0  0  0  0  0
   -0.1470   19.3290  -36.3210 C   0  0  0  0  0
   -2.6000   18.8740  -36.4360 C   0  0  0  0  0
   -0.6400   20.5660  -40.5740 N   0  0  0  0  0
   -0.5910   21.9590  -40.8370 C   0  0  0  0  0
    0.4450   22.2350  -41.9910 C   0  0  0  0  0
    0.6330   21.3670  -42.8910 O   0  0  0  0  0
   -0.1590   22.7010  -39.5800 C   0  0  0  0  0
    1.4000   22.5800  -39.4130 C   0  0  0  0  0
    2.1070   21.4410  -39.0570 C   0  0  0  0  0
    2.2960   23.6070  -39.5990 C   0  0  0  0  0
    3.4420   21.7710  -39.0250 N   0  0  0  0  0
    3.5630   23.1080  -39.3590 C   0  0  0  0  0
    2.1200   24.9570  -39.9620 C   0  0  0  0  0
    4.6830   23.9510  -39.4780 C   0  0  0  0  0
    3.2390   25.7990  -40.0810 C   0  0  0  0  0
    4.5090   25.3030  -39.8420 C   0  0  0  0  0
    1.1100   23.3590  -42.0190 O   0  0  0  0  0
   -0.0072   18.7114  -42.8700 H   0  0  0  0  0
    0.9497   16.8839  -44.2424 H   0  0  0  0  0
    1.9291   19.0334  -44.0160 H   0  0  0  0  0
   -0.7157   16.5863  -45.8831 H   0  0  0  0  0
    1.5678   16.3386  -46.5449 H   0  0  0  0  0
   -0.0899   19.3448  -46.8574 H   0  0  0  0  0
   -0.8162   17.7154  -48.4717 H   0  0  0  0  0
   -2.5976   18.3159  -45.5262 H   0  0  0  0  0
   -3.2598   20.7022  -45.6695 H   0  0  0  0  0
   -1.7045   21.0883  -46.4461 H   0  0  0  0  0
   -2.8900   20.0613  -47.2892 H   0  0  0  0  0
   -2.7404   19.4678  -42.4306 H   0  0  0  0  0
   -0.4003   17.4166  -40.6948 H   0  0  0  0  0
   -2.9223   18.1967  -39.4050 H   0  0  0  0  0
    0.0049   18.1784  -38.5998 H   0  0  0  0  0
   -1.3291   17.1948  -37.9534 H   0  0  0  0  0
   -1.4687   20.2290  -37.7153 H   0  0  0  0  0
    0.0003   18.3585  -35.8471 H   0  0  0  0  0
    0.7441   19.5965  -36.8888 H   0  0  0  0  0
   -0.3324   20.0836  -35.5566 H   0  0  0  0  0
   -3.4527   18.8220  -37.1129 H   0  0  0  0  0
   -2.4514   17.9040  -35.9615 H   0  0  0  0  0
   -2.7864   19.6289  -35.6721 H   0  0  0  0  0
    0.1287   19.9629  -40.8669 H   0  0  0  0  0
   -1.5785   22.3068  -41.1403 H   0  0  0  0  0
   -0.6533   22.2653  -38.7117 H   0  0  0  0  0
   -0.4359   23.7519  -39.6640 H   0  0  0  0  0
    1.6814   20.4610  -38.8414 H   0  0  0  0  0
    1.1196   25.3469  -40.1498 H   0  0  0  0  0
    5.6830   23.5605  -39.2894 H   0  0  0  0  0
    3.1066   26.8438  -40.3618 H   0  0  0  0  0
    5.3756   25.9576  -39.9351 H   0  0  0  0  0
    0.8509   23.9015  -41.2705 H   0  0  0  0  0
  1  2  1  0  0  0
  1  3  1  0  0  0
  1 10  1  0  0  0
  2 12  1  0  0  0
  3  4  1  0  0  0
  3  5  1  0  0  0
  5  6  1  0  0  0
  5  7  1  0  0  0
  7  8  1  0  0  0
  7  9  1  0  0  0
  9 10  1  0  0  0
  9 11  1  0  0  0
 12 13  1  0  0  0
 12 14  2  0  0  0
 12 15  1  0  0  0
 15 16  1  0  0  0
 16 17  1  0  0  0
 16 19  1  0  0  0
 17 18  2  0  0  0
 17 23  1  0  0  0
 19 20  1  0  0  0
 20 21  1  0  0  0
 20 22  1  0  0  0
 23 24  1  0  0  0
 24 25  1  0  0  0
 24 27  1  0  0  0
 25 26  2  0  0  0
 25 37  1  0  0  0
 27 28  1  0  0  0
 28 29  4  0  0  0
 28 30  4  0  0  0
 29 31  4  0  0  0
 30 32  4  0  0  0
 30 33  4  0  0  0
 31 32  4  0  0  0
 32 34  4  0  0  0
 33 35  4  0  0  0
 34 36  4  0  0  0
 35 36  4  0  0  0
  1 38  1  0  0  0
  3 39  1  0  0  0
  4 40  1  0  0  0
  5 41  1  0  0  0
  6 42  1  0  0  0
  7 43  1  0  0  0
  8 44  1  0  0  0
  9 45  1  0  0  0
 11 46  1  0  0  0
 11 47  1  0  0  0
 11 48  1  0  0  0
 13 49  1  0  0  0
 15 50  1  0  0  0
 16 51  1  0  0  0
 19 52  1  0  0  0
 19 53  1  0  0  0
 20 54  1  0  0  0
 21 55  1  0  0  0
 21 56  1  0  0  0
 21 57  1  0  0  0
 22 58  1  0  0  0
 22 59  1  0  0  0
 22 60  1  0  0  0
 23 61  1  0  0  0
 24 62  1  0  0  0
 27 63  1  0  0  0
 27 64  1  0  0  0
 29 65  1  0  0  0
 33 66  1  0  0  0
 34 67  1  0  0  0
 35 68  1  0  0  0
 36 69  1  0  0  0
 37 70  1  0  0  0
M  END
$$$$
