6czf_ligand
  -I-interpret- 

 52 54  0  0  0  0  0  0  0  0999 V2000
  -24.3090   30.6310  -26.9550 P   0  0  0  0  0
  -24.9250   30.2530  -28.2770 O   0  0  0  0  0
  -24.2090   32.1340  -26.7660 O   0  0  0  0  0
  -23.0390   29.8530  -26.6190 O   0  0  0  0  0
  -25.3580   30.1700  -25.7920 O   0  0  0  0  0
  -26.5040   29.0440  -25.9520 P   0  0  0  0  0
  -27.5570   29.3330  -24.9040 O   0  0  0  0  0
  -27.0330   28.9660  -27.3630 O   0  0  0  0  0
  -25.7270   27.6980  -25.6190 O   0  0  0  0  0
  -26.4600   26.5220  -25.6040 C   0  0  0  0  0
  -26.1310   25.6570  -26.8080 C   0  0  0  0  0
  -26.2970   24.3290  -26.2580 O   0  0  0  0  0
  -27.0720   25.7610  -28.0170 C   0  0  0  0  0
  -26.3820   25.2920  -29.1560 O   0  0  0  0  0
  -28.2350   24.8600  -27.6320 C   0  0  0  0  0
  -28.8110   24.2570  -28.7790 O   0  0  0  0  0
  -27.5940   23.8360  -26.6770 C   0  0  0  0  0
  -28.5090   23.4720  -25.5480 N   0  0  0  0  0
  -29.1470   24.2790  -24.6650 C   0  0  0  0  0
  -29.8830   23.5230  -23.8150 N   0  0  0  0  0
  -29.7430   22.2210  -24.1870 C   0  0  0  0  0
  -30.2440   20.9040  -23.7280 C   0  0  0  0  0
  -31.0220   20.8260  -22.7590 O   0  0  0  0  0
  -29.8270   19.7990  -24.3670 N   0  0  0  0  0
  -28.9810   19.8770  -25.4180 C   0  0  0  0  0
  -28.6090   18.7270  -26.0430 N   0  0  0  0  0
  -28.4890   21.0470  -25.8940 N   0  0  0  0  0
  -28.8310   22.2100  -25.3270 C   0  0  0  0  0
  -25.7770   26.2710  -30.2850 P   0  0  0  0  0
  -24.6840   25.5180  -31.0140 O   0  0  0  0  0
  -25.4260   27.6030  -29.7090 O   0  0  0  0  0
  -27.0580   26.4070  -31.3160 O   0  0  0  0  0
  -28.3660   27.3170  -31.0820 P   0  0  0  0  0
  -28.0450   28.3190  -30.0440 O   0  0  0  0  0
  -28.6330   27.9390  -32.4070 O   0  0  0  0  0
  -29.3910   26.3070  -30.6730 O   0  0  0  0  0
  -23.8118   32.3223  -25.9126 H   0  0  0  0  0
  -22.7028   30.1436  -25.7681 H   0  0  0  0  0
  -27.1441   29.3668  -24.0380 H   0  0  0  0  0
  -27.5206   26.7718  -25.6335 H   0  0  0  0  0
  -26.2121   25.9681  -24.6985 H   0  0  0  0  0
  -25.1580   25.9460  -27.2054 H   0  0  0  0  0
  -27.4138   26.7684  -28.2543 H   0  0  0  0  0
  -29.0619   25.3911  -27.1605 H   0  0  0  0  0
  -29.5412   23.6944  -28.5108 H   0  0  0  0  0
  -27.4305   22.8935  -27.1996 H   0  0  0  0  0
  -29.0785   25.3666  -24.6424 H   0  0  0  0  0
  -28.9678   17.8299  -25.7161 H   0  0  0  0  0
  -27.8527   21.0409  -26.6912 H   0  0  0  0  0
  -25.0318   24.6829  -31.3352 H   0  0  0  0  0
  -28.8360   27.2524  -33.0465 H   0  0  0  0  0
  -29.5430   25.6956  -31.3974 H   0  0  0  0  0
  1  2  2  0  0  0
  1  3  1  0  0  0
  1  4  1  0  0  0
  1  5  1  0  0  0
  5  6  1  0  0  0
  6  7  1  0  0  0
  6  8  2  0  0  0
  6  9  1  0  0  0
  9 10  1  0  0  0
 10 11  1  0  0  0
 11 12  1  0  0  0
 11 13  1  0  0  0
 12 17  1  0  0  0
 13 14  1  0  0  0
 13 15  1  0  0  0
 14 29  1  0  0  0
 15 16  1  0  0  0
 15 17  1  0  0  0
 17 18  1  0  0  0
 18 19  4  0  0  0
 18 28  4  0  0  0
 19 20  4  0  0  0
 20 21  4  0  0  0
 21 22  1  0  0  0
 21 28  4  0  0  0
 22 23  2  0  0  0
 22 24  1  0  0  0
 24 25  4  0  0  0
 25 26  2  0  0  0
 25 27  1  0  0  0
 27 28  1  0  0  0
 29 30  1  0  0  0
 29 31  2  0  0  0
 29 32  1  0  0  0
 32 33  1  0  0  0
 33 34  2  0  0  0
 33 35  1  0  0  0
 33 36  1  0  0  0
  3 37  1  0  0  0
  4 38  1  0  0  0
  7 39  1  0  0  0
 10 40  1  0  0  0
 10 41  1  0  0  0
 11 42  1  0  0  0
 13 43  1  0  0  0
 15 44  1  0  0  0
 16 45  1  0  0  0
 17 46  1  0  0  0
 19 47  1  0  0  0
 26 48  1  0  0  0
 27 49  1  0  0  0
 30 50  1  0  0  0
 35 51  1  0  0  0
 36 52  1  0  0  0
M  END
$$$$
