6da1_ligand
  -I-interpret- 

262269  0  0  0  0  0  0  0  0999 V2000
   24.2230   48.3050   42.7670 N   0  3  0  0  0
   25.3170   48.6060   43.6960 C   0  0  0  0  0
   26.6240   48.9280   42.9830 C   0  0  0  0  0
   26.7730   48.6180   41.8010 O   0  0  0  0  0
   25.4470   47.3160   44.5060 C   0  0  0  0  0
   25.0050   46.2530   43.5680 C   0  0  0  0  0
   23.9080   46.8660   42.7400 C   0  0  0  0  0
   27.5590   49.5440   43.6980 N   0  0  0  0  0
   28.8840   49.8840   43.1480 C   0  0  0  0  0
   29.4320   51.2160   43.7440 C   0  0  0  0  0
   30.1580   50.9630   44.8780 O   0  0  0  0  0
   29.9070   48.7620   43.4110 C   0  0  0  0  0
   29.9230   48.1560   44.5190 O   0  0  0  0  0
   29.6700   51.8870   46.3550 P   0  0  0  0  0
   29.7620   53.3190   45.8710 O   0  0  0  0  0
   28.2640   51.3910   46.6450 O   0  0  0  0  0
   30.7180   51.4510   47.3610 O   0  0  0  0  0
   30.7420   48.4860   42.4150 N   0  0  0  0  0
   31.7630   47.4800   42.5360 C   0  0  0  0  0
   31.6240   46.5020   41.3600 C   0  0  0  0  0
   30.2980   45.8550   41.3420 C   0  0  0  0  0
   29.2520   46.3510   40.5740 C   0  0  0  0  0
   29.4350   47.4490   39.8180 F   0  0  0  0  0
   30.0340   44.7210   42.0970 C   0  0  0  0  0
   30.9910   44.1750   42.8700 F   0  0  0  0  0
   28.0030   45.7480   40.5570 C   0  0  0  0  0
   27.0080   46.2580   39.7970 F   0  0  0  0  0
   28.7950   44.1090   42.0910 C   0  0  0  0  0
   28.5820   43.0030   42.8420 F   0  0  0  0  0
   27.7810   44.6260   41.3190 C   0  0  0  0  0
   26.5670   44.0270   41.3110 F   0  0  0  0  0
   33.2220   48.0270   42.5850 C   0  0  0  0  0
   34.0050   47.7700   41.6430 O   0  0  0  0  0
   33.5530   48.7490   43.6510 N   0  0  0  0  0
   34.8710   49.3490   43.8020 C   0  0  0  0  0
   35.9520   48.3000   43.5800 C   0  0  0  0  0
   35.7230   47.1080   43.7770 O   0  0  0  0  0
   35.0200   49.9830   45.1880 C   0  0  0  0  0
   35.8010   51.2870   45.1600 C   0  0  0  0  0
   36.1060   51.7870   44.0570 O   0  0  0  0  0
   36.1100   51.8130   46.2490 O   0  0  0  0  0
   37.1310   48.7490   43.1650 N   0  0  0  0  0
   38.2430   47.8460   42.8090 C   0  0  0  0  0
   39.5140   48.6440   42.3930 C   0  0  0  0  0
   40.3920   48.7000   43.4370 O   0  0  0  0  0
   38.6210   46.8930   43.9640 C   0  0  0  0  0
   38.6230   47.2960   45.1620 O   0  0  0  0  0
   40.8110   50.3500   44.0400 P   0  0  0  0  0
   41.2740   51.0320   42.7700 O   0  0  0  0  0
   39.5070   50.8710   44.6180 O   0  0  0  0  0
   41.8840   50.0440   45.0660 O   0  0  0  0  0
   38.9260   45.6490   43.6090 N   0  0  0  0  0
   39.4300   44.6830   44.5440 C   0  0  0  0  0
   38.6170   43.3810   44.4080 C   0  0  0  0  0
   37.1620   43.6040   44.5730 C   0  0  0  0  0
   36.3310   43.8480   43.4880 C   0  0  0  0  0
   36.8460   43.8860   42.2470 F   0  0  0  0  0
   36.5600   43.5780   45.8230 C   0  0  0  0  0
   37.2940   43.3480   46.9270 F   0  0  0  0  0
   34.9650   44.0580   43.6380 C   0  0  0  0  0
   34.1850   44.2930   42.5590 F   0  0  0  0  0
   35.2020   43.7850   45.9900 C   0  0  0  0  0
   34.6560   43.7530   47.2290 F   0  0  0  0  0
   34.4070   44.0260   44.8930 C   0  0  0  0  0
   33.0760   44.2280   45.0490 F   0  0  0  0  0
   40.9520   44.3720   44.3620 C   0  0  0  0  0
   41.2970   43.3680   43.7010 O   0  0  0  0  0
   41.8100   45.2150   44.9270 N   0  0  0  0  0
   43.2410   45.1490   44.6610 C   0  0  0  0  0
   44.0590   45.2750   45.9430 C   0  0  0  0  0
   44.2150   46.3700   46.4820 O   0  0  0  0  0
   43.6340   46.2530   43.6760 C   0  0  0  0  0
   45.0230   46.0630   43.1050 C   0  0  0  0  0
   45.5510   44.9330   43.1690 O   0  0  0  0  0
   45.5890   47.0520   42.5950 O   0  0  0  0  0
   44.5800   44.1480   46.4200 N   0  0  0  0  0
   45.4030   44.1170   47.6150 C   0  0  0  0  0
   44.5810   43.5060   48.7680 C   0  0  0  0  0
   43.3260   44.2400   49.0230 C   0  0  0  0  0
   42.1620   43.9450   48.3300 C   0  0  0  0  0
   42.1640   42.9720   47.4030 F   0  0  0  0  0
   43.2510   45.2550   49.9680 C   0  0  0  0  0
   44.3350   45.6040   50.6870 F   0  0  0  0  0
   40.9770   44.6240   48.5570 C   0  0  0  0  0
   39.8620   44.3080   47.8630 F   0  0  0  0  0
   42.0740   45.9430   50.2090 C   0  0  0  0  0
   42.0390   46.9280   51.1400 F   0  0  0  0  0
   40.9380   45.6230   49.4990 C   0  0  0  0  0
   39.7820   46.2900   49.7270 F   0  0  0  0  0
   46.7510   43.3180   47.4810 C   0  0  0  0  0
   46.8590   42.4820   46.5650 O   0  0  0  0  0
   47.7170   43.5690   48.3580 N   0  0  0  0  0
   49.0150   42.9050   48.2630 C   0  0  0  0  0
   48.8990   41.4000   48.5110 C   0  0  0  0  0
   49.7160   40.6240   48.0140 O   0  0  0  0  0
   50.0130   43.5280   49.2460 C   0  0  0  0  0
   49.5910   43.4760   50.6980 C   0  0  0  0  0
   50.6150   44.1110   51.6240 C   0  0  0  0  0
   51.4910   44.8570   51.1350 O   0  0  0  0  0
   50.5460   43.8580   52.8440 O   0  0  0  0  0
   47.8880   40.9910   49.2730 N   0  0  0  0  0
   47.6520   39.5720   49.5320 C   0  0  0  0  0
   46.6590   39.0010   48.5240 C   0  0  0  0  0
   46.4570   37.7890   48.4510 O   0  0  0  0  0
   47.1280   39.3550   50.9510 C   0  0  0  0  0
   45.7180   39.8710   51.1320 C   0  0  0  0  0
   45.4850   41.0720   50.8780 O   0  0  0  0  0
   44.8380   39.0720   51.5110 O   0  0  0  0  0
   46.0300   39.8890   47.7630 N   0  0  0  0  0
   45.1270   39.5000   46.7110 C   0  0  0  0  0
   43.7040   39.3740   47.2980 C   0  0  0  0  0
   42.7400   38.6800   46.4000 C   0  0  0  0  0
   42.9100   37.3510   46.0240 C   0  0  0  0  0
   43.9740   36.6560   46.4620 F   0  0  0  0  0
   41.6110   39.3230   45.9030 C   0  0  0  0  0
   41.3580   40.6070   46.2140 F   0  0  0  0  0
   42.0080   36.6990   45.1900 C   0  0  0  0  0
   42.2060   35.4080   44.8410 F   0  0  0  0  0
   40.7060   38.6840   45.0720 C   0  0  0  0  0
   39.6200   39.3450   44.6040 F   0  0  0  0  0
   40.9090   37.3740   44.7190 C   0  0  0  0  0
   40.0230   36.7520   43.9060 F   0  0  0  0  0
   45.1230   40.4920   45.5030 C   0  0  0  0  0
   44.1060   41.1820   45.2820 O   0  0  0  0  0
   46.2410   40.5580   44.7650 N   0  0  0  0  0
   46.4310   41.5560   43.7080 C   0  0  0  0  0
   45.5480   41.3180   42.4910 C   0  0  0  0  0
   45.3530   40.1780   42.0730 O   0  0  0  0  0
   47.9090   41.4000   43.3450 C   0  0  0  0  0
   48.2320   39.9920   43.6820 C   0  0  0  0  0
   47.3970   39.6500   44.8800 C   0  0  0  0  0
   45.0180   42.4010   41.9320 N   0  0  0  0  0
   44.1900   42.3090   40.7420 C   0  0  0  0  0
   45.0640   42.1490   39.5060 C   0  0  0  0  0
   46.1280   42.7640   39.3940 O   0  0  0  0  0
   43.3120   43.5530   40.6030 C   0  0  0  0  0
   44.6130   41.3080   38.5830 N   0  0  0  0  0
   45.2990   41.1520   37.3140 C   0  0  0  0  0
   44.8530   42.2360   36.3390 C   0  0  0  0  0
   43.7890   42.8440   36.4870 O   0  0  0  0  0
   45.0280   39.7700   36.7210 C   0  0  0  0  0
   45.6890   42.4770   35.3310 N   0  0  0  0  0
   45.3810   43.4720   34.3110 C   0  0  0  0  0
   45.7870   42.9690   32.9330 C   0  0  0  0  0
   44.9300   42.7090   32.0830 O   0  0  0  0  0
   46.0880   44.7940   34.6190 C   0  0  0  0  0
   45.8990   45.9130   33.5900 C   0  0  0  0  0
   44.4330   46.2920   33.4640 C   0  0  0  0  0
   46.7390   47.1280   33.9570 C   0  0  0  0  0
   47.0880   42.8350   32.7050 N   0  0  0  0  0
   47.5980   42.4120   31.4080 C   0  0  0  0  0
   47.6990   40.8940   31.3340 C   0  0  0  0  0
   47.6970   40.2080   32.3580 O   0  0  0  0  0
   48.9680   43.0360   31.1380 C   0  0  0  0  0
   49.0050   44.5250   31.3030 C   0  0  0  0  0
   49.7550   45.2290   32.1970 C   0  0  0  0  0
   48.2630   45.4940   30.5510 C   0  0  0  0  0
   49.5290   46.5750   32.0500 N   0  0  0  0  0
   48.6160   46.7640   31.0470 C   0  0  0  0  0
   47.3360   45.4100   29.5090 C   0  0  0  0  0
   48.0750   47.9410   30.5360 C   0  0  0  0  0
   46.7980   46.5800   29.0030 C   0  0  0  0  0
   47.1700   47.8290   29.5170 C   0  0  0  0  0
   47.7920   40.3750   30.1140 N   0  0  0  0  0
   24.5111   48.5876   41.8302 H   0  0  0  0  0
   23.3920   48.8092   43.0763 H   0  0  0  0  0
   25.1091   49.4898   44.2992 H   0  0  0  0  0
   24.8468   47.3384   45.4156 H   0  0  0  0  0
   26.4643   47.1541   44.8624 H   0  0  0  0  0
   24.6515   45.3727   44.1049 H   0  0  0  0  0
   25.8286   45.9090   42.9424 H   0  0  0  0  0
   23.8734   46.4640   41.7274 H   0  0  0  0  0
   22.9150   46.6474   43.1329 H   0  0  0  0  0
   27.3520   49.7915   44.6656 H   0  0  0  0  0
   28.7485   50.0049   42.0732 H   0  0  0  0  0
   28.5940   51.8665   43.9943 H   0  0  0  0  0
   30.0756   51.6982   43.0082 H   0  0  0  0  0
   28.3028   50.4797   46.9443 H   0  0  0  0  0
   30.5689   50.5331   47.5993 H   0  0  0  0  0
   30.6566   49.0023   41.5395 H   0  0  0  0  0
   31.6035   46.9938   43.4984 H   0  0  0  0  0
   32.3829   45.7269   41.4664 H   0  0  0  0  0
   31.7460   47.0610   40.4322 H   0  0  0  0  0
   32.8609   48.8872   44.3874 H   0  0  0  0  0
   34.9828   50.1335   43.0535 H   0  0  0  0  0
   35.5657   49.2811   45.8187 H   0  0  0  0  0
   34.0204   50.2012   45.5639 H   0  0  0  0  0
   35.7749   51.2274   43.3507 H   0  0  0  0  0
   37.2735   49.7562   43.0894 H   0  0  0  0  0
   37.8842   47.2544   41.9668 H   0  0  0  0  0
   39.2257   49.6569   42.1119 H   0  0  0  0  0
   39.9909   48.1449   41.5494 H   0  0  0  0  0
   39.2944   50.3824   45.4166 H   0  0  0  0  0
   41.4850   49.6150   45.8265 H   0  0  0  0  0
   38.7972   45.3703   42.6363 H   0  0  0  0  0
   39.3202   45.1143   45.5390 H   0  0  0  0  0
   38.9440   42.6959   45.1902 H   0  0  0  0  0
   38.7856   42.9810   43.4082 H   0  0  0  0  0
   41.4568   45.9283   45.5648 H   0  0  0  0  0
   43.4585   44.1738   44.2254 H   0  0  0  0  0
   43.6213   47.2006   44.2145 H   0  0  0  0  0
   42.9263   46.2283   42.8473 H   0  0  0  0  0
   44.9463   44.3222   43.5966 H   0  0  0  0  0
   44.3944   43.2739   45.9282 H   0  0  0  0  0
   45.6878   45.1521   47.8037 H   0  0  0  0  0
   45.1866   43.5534   49.6730 H   0  0  0  0  0
   44.3211   42.4847   48.4896 H   0  0  0  0  0
   47.5495   44.2368   49.1106 H   0  0  0  0  0
   49.3817   43.0490   47.2467 H   0  0  0  0  0
   50.1029   44.5813   48.9804 H   0  0  0  0  0
   50.9367   42.9551   49.1645 H   0  0  0  0  0
   49.4856   42.4285   50.9805 H   0  0  0  0  0
   48.6579   44.0305   50.7973 H   0  0  0  0  0
   51.3647   44.9172   50.1853 H   0  0  0  0  0
   47.2633   41.6836   49.6859 H   0  0  0  0  0
   48.6042   39.0518   49.4282 H   0  0  0  0  0
   47.7766   39.9005   51.6364 H   0  0  0  0  0
   47.1219   38.2828   51.1473 H   0  0  0  0  0
   46.2978   41.5037   50.6048 H   0  0  0  0  0
   46.1923   40.8821   47.9296 H   0  0  0  0  0
   45.4719   38.5434   46.3184 H   0  0  0  0  0
   43.3285   40.3848   47.4574 H   0  0  0  0  0
   43.7809   38.7823   48.2102 H   0  0  0  0  0
   46.1579   42.5562   44.0443 H   0  0  0  0  0
   48.5384   42.1036   43.8899 H   0  0  0  0  0
   48.0953   41.6199   42.2938 H   0  0  0  0  0
   49.2943   39.8712   43.8944 H   0  0  0  0  0
   48.0139   39.3267   42.8466 H   0  0  0  0  0
   47.1034   38.6004   44.8985 H   0  0  0  0  0
   47.9383   39.7798   45.8171 H   0  0  0  0  0
   45.1963   43.3155   42.3471 H   0  0  0  0  0
   43.5450   41.4354   40.8367 H   0  0  0  0  0
   42.6675   43.6408   41.4776 H   0  0  0  0  0
   43.9456   44.4367   40.5268 H   0  0  0  0  0
   42.6992   43.4652   39.7058 H   0  0  0  0  0
   43.7711   40.7630   38.7689 H   0  0  0  0  0
   46.3706   41.2497   37.4879 H   0  0  0  0  0
   45.3826   39.0042   37.4108 H   0  0  0  0  0
   43.9567   39.6485   36.5607 H   0  0  0  0  0
   45.5520   39.6750   35.7700 H   0  0  0  0  0
   46.5630   41.9546   35.2713 H   0  0  0  0  0
   44.3045   43.6429   34.3161 H   0  0  0  0  0
   47.1552   44.5730   34.6380 H   0  0  0  0  0
   45.6588   45.1604   35.5516 H   0  0  0  0  0
   46.2367   45.5429   32.6220 H   0  0  0  0  0
   43.8601   45.4213   33.1449 H   0  0  0  0  0
   44.0640   46.6373   34.4298 H   0  0  0  0  0
   44.3269   47.0883   32.7273 H   0  0  0  0  0
   46.4357   47.4950   34.9375 H   0  0  0  0  0
   47.7916   46.8460   33.9828 H   0  0  0  0  0
   46.5891   47.9100   33.2126 H   0  0  0  0  0
   47.7474   43.0334   33.4575 H   0  0  0  0  0
   46.8973   42.7535   30.6461 H   0  0  0  0  0
   49.2220   42.8200   30.1002 H   0  0  0  0  0
   49.6635   42.6137   31.8633 H   0  0  0  0  0
   50.4362   44.7869   32.9241 H   0  0  0  0  0
   47.0425   44.4420   29.1028 H   0  0  0  0  0
   48.3620   48.9146   30.9332 H   0  0  0  0  0
   46.0727   46.5291   28.1910 H   0  0  0  0  0
   46.7282   48.7318   29.0952 H   0  0  0  0  0
   47.8662   39.3648   29.9938 H   0  0  0  0  0
   47.7892   40.9869   29.2979 H   0  0  0  0  0
  1  2  1  0  0  0
  1  7  1  0  0  0
  2  3  1  0  0  0
  2  5  1  0  0  0
  3  4  2  0  0  0
  3  8  1  0  0  0
  5  6  1  0  0  0
  6  7  1  0  0  0
  8  9  1  0  0  0
  9 10  1  0  0  0
  9 12  1  0  0  0
 10 11  1  0  0  0
 11 14  1  0  0  0
 12 13  2  0  0  0
 12 18  1  0  0  0
 14 15  2  0  0  0
 14 16  1  0  0  0
 14 17  1  0  0  0
 18 19  1  0  0  0
 19 20  1  0  0  0
 19 32  1  0  0  0
 20 21  1  0  0  0
 21 22  4  0  0  0
 21 24  4  0  0  0
 22 23  1  0  0  0
 22 26  4  0  0  0
 24 25  1  0  0  0
 24 28  4  0  0  0
 26 27  1  0  0  0
 26 30  4  0  0  0
 28 29  1  0  0  0
 28 30  4  0  0  0
 30 31  1  0  0  0
 32 33  2  0  0  0
 32 34  1  0  0  0
 34 35  1  0  0  0
 35 36  1  0  0  0
 35 38  1  0  0  0
 36 37  2  0  0  0
 36 42  1  0  0  0
 38 39  1  0  0  0
 39 40  1  0  0  0
 39 41  2  0  0  0
 42 43  1  0  0  0
 43 44  1  0  0  0
 43 46  1  0  0  0
 44 45  1  0  0  0
 45 48  1  0  0  0
 46 47  2  0  0  0
 46 52  1  0  0  0
 48 49  2  0  0  0
 48 50  1  0  0  0
 48 51  1  0  0  0
 52 53  1  0  0  0
 53 54  1  0  0  0
 53 66  1  0  0  0
 54 55  1  0  0  0
 55 56  4  0  0  0
 55 58  4  0  0  0
 56 57  1  0  0  0
 56 60  4  0  0  0
 58 59  1  0  0  0
 58 62  4  0  0  0
 60 61  1  0  0  0
 60 64  4  0  0  0
 62 63  1  0  0  0
 62 64  4  0  0  0
 64 65  1  0  0  0
 66 67  2  0  0  0
 66 68  1  0  0  0
 68 69  1  0  0  0
 69 70  1  0  0  0
 69 72  1  0  0  0
 70 71  2  0  0  0
 70 76  1  0  0  0
 72 73  1  0  0  0
 73 74  1  0  0  0
 73 75  2  0  0  0
 76 77  1  0  0  0
 77 78  1  0  0  0
 77 90  1  0  0  0
 78 79  1  0  0  0
 79 80  4  0  0  0
 79 82  4  0  0  0
 80 81  1  0  0  0
 80 84  4  0  0  0
 82 83  1  0  0  0
 82 86  4  0  0  0
 84 85  1  0  0  0
 84 88  4  0  0  0
 86 87  1  0  0  0
 86 88  4  0  0  0
 88 89  1  0  0  0
 90 91  2  0  0  0
 90 92  1  0  0  0
 92 93  1  0  0  0
 93 94  1  0  0  0
 93 96  1  0  0  0
 94 95  2  0  0  0
 94101  1  0  0  0
 96 97  1  0  0  0
 97 98  1  0  0  0
 98 99  1  0  0  0
 98100  2  0  0  0
101102  1  0  0  0
102103  1  0  0  0
102105  1  0  0  0
103104  2  0  0  0
103109  1  0  0  0
105106  1  0  0  0
106107  1  0  0  0
106108  2  0  0  0
109110  1  0  0  0
110111  1  0  0  0
110123  1  0  0  0
111112  1  0  0  0
112113  4  0  0  0
112115  4  0  0  0
113114  1  0  0  0
113117  4  0  0  0
115116  1  0  0  0
115119  4  0  0  0
117118  1  0  0  0
117121  4  0  0  0
119120  1  0  0  0
119121  4  0  0  0
121122  1  0  0  0
123124  2  0  0  0
123125  1  0  0  0
125126  1  0  0  0
125131  1  0  0  0
126127  1  0  0  0
126129  1  0  0  0
127128  2  0  0  0
127132  1  0  0  0
129130  1  0  0  0
130131  1  0  0  0
132133  1  0  0  0
133134  1  0  0  0
133136  1  0  0  0
134135  2  0  0  0
134137  1  0  0  0
137138  1  0  0  0
138139  1  0  0  0
138141  1  0  0  0
139140  2  0  0  0
139142  1  0  0  0
142143  1  0  0  0
143144  1  0  0  0
143146  1  0  0  0
144145  2  0  0  0
144150  1  0  0  0
146147  1  0  0  0
147148  1  0  0  0
147149  1  0  0  0
150151  1  0  0  0
151152  1  0  0  0
151154  1  0  0  0
152153  2  0  0  0
152164  1  0  0  0
154155  1  0  0  0
155156  4  0  0  0
155157  4  0  0  0
156158  4  0  0  0
157159  4  0  0  0
157160  4  0  0  0
158159  4  0  0  0
159161  4  0  0  0
160162  4  0  0  0
161163  4  0  0  0
162163  4  0  0  0
  1165  1  0  0  0
  1166  1  0  0  0
  2167  1  0  0  0
  5168  1  0  0  0
  5169  1  0  0  0
  6170  1  0  0  0
  6171  1  0  0  0
  7172  1  0  0  0
  7173  1  0  0  0
  8174  1  0  0  0
  9175  1  0  0  0
 10176  1  0  0  0
 10177  1  0  0  0
 16178  1  0  0  0
 17179  1  0  0  0
 18180  1  0  0  0
 19181  1  0  0  0
 20182  1  0  0  0
 20183  1  0  0  0
 34184  1  0  0  0
 35185  1  0  0  0
 38186  1  0  0  0
 38187  1  0  0  0
 40188  1  0  0  0
 42189  1  0  0  0
 43190  1  0  0  0
 44191  1  0  0  0
 44192  1  0  0  0
 50193  1  0  0  0
 51194  1  0  0  0
 52195  1  0  0  0
 53196  1  0  0  0
 54197  1  0  0  0
 54198  1  0  0  0
 68199  1  0  0  0
 69200  1  0  0  0
 72201  1  0  0  0
 72202  1  0  0  0
 74203  1  0  0  0
 76204  1  0  0  0
 77205  1  0  0  0
 78206  1  0  0  0
 78207  1  0  0  0
 92208  1  0  0  0
 93209  1  0  0  0
 96210  1  0  0  0
 96211  1  0  0  0
 97212  1  0  0  0
 97213  1  0  0  0
 99214  1  0  0  0
101215  1  0  0  0
102216  1  0  0  0
105217  1  0  0  0
105218  1  0  0  0
107219  1  0  0  0
109220  1  0  0  0
110221  1  0  0  0
111222  1  0  0  0
111223  1  0  0  0
126224  1  0  0  0
129225  1  0  0  0
129226  1  0  0  0
130227  1  0  0  0
130228  1  0  0  0
131229  1  0  0  0
131230  1  0  0  0
132231  1  0  0  0
133232  1  0  0  0
136233  1  0  0  0
136234  1  0  0  0
136235  1  0  0  0
137236  1  0  0  0
138237  1  0  0  0
141238  1  0  0  0
141239  1  0  0  0
141240  1  0  0  0
142241  1  0  0  0
143242  1  0  0  0
146243  1  0  0  0
146244  1  0  0  0
147245  1  0  0  0
148246  1  0  0  0
148247  1  0  0  0
148248  1  0  0  0
149249  1  0  0  0
149250  1  0  0  0
149251  1  0  0  0
150252  1  0  0  0
151253  1  0  0  0
154254  1  0  0  0
154255  1  0  0  0
156256  1  0  0  0
160257  1  0  0  0
161258  1  0  0  0
162259  1  0  0  0
163260  1  0  0  0
164261  1  0  0  0
164262  1  0  0  0
M  END
$$$$
