6enx_ligand
  -I-interpret- 

144151  0  0  0  0  0  0  0  0999 V2000
  -20.7650   29.3520   -1.5900 C   0  0  0  0  0
  -22.0060   29.3260   -1.0920 C   0  0  0  0  0
  -23.0820   28.9810   -1.8560 C   0  0  0  0  0
  -20.6090   29.9780    0.4180 C   0  0  0  0  0
  -22.9120   28.6150   -3.1230 N   0  0  0  0  0
  -20.5550   29.0420   -2.8830 N   0  0  0  0  0
    1.0040   24.5730    9.1910 C   0  0  0  0  0
    0.7440   23.5160   10.0860 C   0  0  0  0  0
    0.0240   22.4170    9.6340 C   0  0  0  0  0
   -0.3640   22.3650    8.2900 C   0  0  0  0  0
   -0.1150   23.3870    7.4730 C   0  0  0  0  0
    0.5890   24.4770    7.9170 C   0  0  0  0  0
    0.7120   25.3260    6.9030 N   0  0  0  0  0
    0.1140   24.7810    5.8140 C   0  0  0  0  0
   -0.3840   23.5800    6.1600 C   0  0  0  0  0
   -1.0940   22.6390    5.2370 C   0  0  0  0  0
   -2.6440   22.6360    5.4780 C   0  0  0  0  0
   -3.2540   23.8840    4.8860 C   0  0  0  0  0
   -3.5690   23.9380    3.7550 O   0  0  0  0  0
   -3.3820   24.9130    5.7100 N   0  0  0  0  0
   -3.8180   26.2840    5.3480 C   0  0  0  0  0
   -5.1860   26.3470    4.7190 C   0  0  0  0  0
   -2.7390   26.9560    4.4820 C   0  0  0  0  0
   -3.2370   21.3990    4.9280 N   0  0  0  0  0
   -3.0880   20.2570    5.5970 C   0  0  0  0  0
   -2.6350   20.2110    6.7410 O   0  0  0  0  0
   -3.7200   19.0190    4.9720 C   0  0  0  0  0
   -2.7440   17.9110    5.0110 N   0  0  0  0  0
   -1.5360   17.9570    4.4930 C   0  0  0  0  0
   -1.1740   18.9200    3.8160 O   0  0  0  0  0
   -0.7340   16.9050    4.7260 O   0  0  0  0  0
    0.6780   17.0080    4.3620 C   0  0  0  0  0
    1.4900   16.3950    5.3200 C   0  0  0  0  0
    1.1600   16.3900    6.7070 C   0  0  0  0  0
    1.9960   15.7760    7.6530 C   0  0  0  0  0
    3.1870   15.1910    7.1940 C   0  0  0  0  0
    3.5550   15.2130    5.8280 C   0  0  0  0  0
    2.7080   15.8430    4.8810 C   0  0  0  0  0
   -4.9540   18.6270    5.7760 C   0  0  0  0  0
   -6.1000   19.6180    5.5450 C   0  0  0  0  0
   -7.2040   19.3750    6.5730 C   0  0  0  0  0
   -8.4840   20.1950    6.2960 C   0  0  0  0  0
   -9.4690   19.7690    7.2920 N   0  3  0  0  0
  -10.6370   20.5940    7.6110 C   0  0  0  0  0
  -11.4020   19.9140    8.7630 C   0  0  0  0  0
  -12.0140   18.5250    8.2090 C   0  0  0  0  0
  -12.9630   17.8500    9.2140 C   0  0  0  0  0
  -14.1720   18.7510    9.4960 C   0  0  0  0  0
  -14.8810   19.1160    8.5100 O   0  0  0  0  0
  -14.1720   19.2120   10.6540 O   0  0  0  0  0
  -11.3850   20.4940    6.3370 O   0  0  0  0  0
  -10.3310   22.3920    7.7850 S   0  0  0  0  0
  -11.6010   22.8740    6.6430 C   0  0  0  0  0
  -11.1820   23.5020    5.3900 O   0  0  0  0  0
  -12.3340   21.5700    6.2620 C   0  0  0  0  0
  -12.7480   21.8810    4.8220 C   0  0  0  0  0
  -12.8760   20.7120    4.1230 O   0  0  0  0  0
  -11.5410   22.7270    4.2930 C   0  0  0  0  0
  -11.8320   23.6530    3.1220 C   0  0  0  0  0
  -13.0020   24.3940    3.4800 O   0  0  0  0  0
  -14.0220   24.8660    2.3920 P   0  0  0  0  0
  -14.8960   23.6080    2.0830 O   0  0  0  0  0
  -13.3600   25.4230    1.1860 O   0  0  0  0  0
  -15.0370   25.8170    3.1330 O   0  0  0  0  0
  -14.6810   27.3670    3.2810 P   0  0  0  0  0
  -15.5990   27.6010    4.5420 O   0  0  0  0  0
  -13.2790   27.7980    3.5770 O   0  0  0  0  0
  -15.3090   28.1080    2.0370 O   0  0  0  0  0
  -16.6530   27.9520    1.6530 C   0  0  0  0  0
  -16.7090   28.5820    0.2400 C   0  0  0  0  0
  -18.0420   28.5200   -0.2070 O   0  0  0  0  0
  -16.2960   30.1210    0.1250 C   0  0  0  0  0
  -15.5110   30.2300   -1.0630 O   0  0  0  0  0
  -17.6490   30.8470   -0.0290 C   0  0  0  0  0
  -17.5950   31.9950   -0.8500 O   0  0  0  0  0
  -18.4400   29.8100   -0.8210 C   0  0  0  0  0
  -19.9170   29.7380   -0.6620 N   0  0  0  0  0
  -21.8810   29.6990    0.1750 N   0  0  0  0  0
  -21.6070   28.6490   -3.6840 C   0  0  0  0  0
  -24.3180   28.9350   -1.3180 N   0  0  0  0  0
  -20.2076   30.3464    1.3621 H   0  0  0  0  0
    1.5375   25.4612    9.5297 H   0  0  0  0  0
    1.1015   23.5598   11.1148 H   0  0  0  0  0
   -0.2350   21.6071   10.3160 H   0  0  0  0  0
   -0.8743   21.4805    7.9088 H   0  0  0  0  0
    0.0482   25.2383    4.8268 H   0  0  0  0  0
   -0.7186   21.6325    5.4219 H   0  0  0  0  0
   -0.9092   22.9625    4.2126 H   0  0  0  0  0
   -2.8570   22.6460    6.5469 H   0  0  0  0  0
   -3.1586   24.7462    6.6911 H   0  0  0  0  0
   -3.9284   26.8453    6.2758 H   0  0  0  0  0
   -5.1912   25.7552    3.8037 H   0  0  0  0  0
   -5.9234   25.9479    5.4154 H   0  0  0  0  0
   -5.4293   27.3833    4.4846 H   0  0  0  0  0
   -1.8055   27.0080    5.0424 H   0  0  0  0  0
   -2.5874   26.3717    3.5744 H   0  0  0  0  0
   -3.0621   27.9629    4.2177 H   0  0  0  0  0
   -3.7531   21.4196    4.0484 H   0  0  0  0  0
   -4.0044   19.2276    3.9406 H   0  0  0  0  0
   -3.0276   17.0472    5.4734 H   0  0  0  0  0
    0.9464   18.0626    4.3002 H   0  0  0  0  0
    0.8291   16.5083    3.4051 H   0  0  0  0  0
    0.2407   16.8723    7.0393 H   0  0  0  0  0
    1.7291   15.7541    8.7096 H   0  0  0  0  0
    3.8481   14.7052    7.9117 H   0  0  0  0  0
    4.4861   14.7475    5.5047 H   0  0  0  0  0
    2.9954   15.8988    3.8310 H   0  0  0  0  0
   -4.6965   18.6319    6.8351 H   0  0  0  0  0
   -5.2789   17.6369    5.4562 H   0  0  0  0  0
   -6.5026   19.4782    4.5418 H   0  0  0  0  0
   -5.7249   20.6360    5.6506 H   0  0  0  0  0
   -6.8212   19.6789    7.5473 H   0  0  0  0  0
   -7.4715   18.3193    6.5275 H   0  0  0  0  0
   -8.8495   20.0210    5.2840 H   0  0  0  0  0
   -8.2881   21.2646    6.3711 H   0  0  0  0  0
   -8.9405   19.7458    8.1641 H   0  0  0  0  0
   -9.8705   18.9211    6.8917 H   0  0  0  0  0
  -12.2033   20.5630    9.1162 H   0  0  0  0  0
  -10.7289   19.7210    9.5984 H   0  0  0  0  0
  -11.1833   17.8439    8.0245 H   0  0  0  0  0
  -12.5851   18.7474    7.3076 H   0  0  0  0  0
  -12.4262   17.6742   10.1462 H   0  0  0  0  0
  -13.3132   16.9073    8.7935 H   0  0  0  0  0
  -14.6635   18.5789    7.7446 H   0  0  0  0  0
  -12.1871   23.6378    7.1542 H   0  0  0  0  0
  -13.1773   21.2784    6.8880 H   0  0  0  0  0
  -13.7012   22.4015    4.7292 H   0  0  0  0  0
  -13.1357   20.9074    3.2197 H   0  0  0  0  0
  -10.7794   22.0496    3.9068 H   0  0  0  0  0
  -11.9909   23.0873    2.2039 H   0  0  0  0  0
  -10.9901   24.3176    2.9281 H   0  0  0  0  0
  -15.2980   23.2917    2.8953 H   0  0  0  0  0
  -16.4949   27.3212    4.3405 H   0  0  0  0  0
  -17.3416   28.4315    2.3487 H   0  0  0  0  0
  -16.9665   26.9081    1.6546 H   0  0  0  0  0
  -15.9838   28.0126   -0.3414 H   0  0  0  0  0
  -15.7263   30.5262    0.9613 H   0  0  0  0  0
  -15.2349   31.1419   -1.1802 H   0  0  0  0  0
  -18.0323   31.1729    0.9379 H   0  0  0  0  0
  -18.4673   32.3927   -0.8998 H   0  0  0  0  0
  -18.2330   30.0493   -1.8641 H   0  0  0  0  0
  -21.4408   28.3706   -4.7247 H   0  0  0  0  0
  -24.4538   29.1592   -0.3323 H   0  0  0  0  0
  -25.1169   28.6760   -1.8969 H   0  0  0  0  0
  1  2  4  0  0  0
  1  6  4  0  0  0
 77  1  4  0  0  0
  2  3  4  0  0  0
 78  2  4  0  0  0
  3  5  4  0  0  0
  3 80  1  0  0  0
 77  4  4  0  0  0
  4 78  4  0  0  0
 79  5  4  0  0  0
  6 79  4  0  0  0
  7  8  4  0  0  0
 12  7  4  0  0  0
  9  8  4  0  0  0
 10  9  4  0  0  0
 11 10  4  0  0  0
 11 12  4  0  0  0
 15 11  4  0  0  0
 13 12  4  0  0  0
 14 13  4  0  0  0
 15 14  4  0  0  0
 16 15  1  0  0  0
 17 16  1  0  0  0
 17 18  1  0  0  0
 24 17  1  0  0  0
 18 19  2  0  0  0
 18 20  1  0  0  0
 20 21  1  0  0  0
 21 22  1  0  0  0
 21 23  1  0  0  0
 25 24  1  0  0  0
 25 26  2  0  0  0
 27 25  1  0  0  0
 27 28  1  0  0  0
 39 27  1  0  0  0
 28 29  1  0  0  0
 29 30  2  0  0  0
 29 31  1  0  0  0
 31 32  1  0  0  0
 32 33  1  0  0  0
 33 34  4  0  0  0
 33 38  4  0  0  0
 34 35  4  0  0  0
 35 36  4  0  0  0
 37 36  4  0  0  0
 38 37  4  0  0  0
 40 39  1  0  0  0
 41 40  1  0  0  0
 42 41  1  0  0  0
 43 42  1  0  0  0
 44 43  1  0  0  0
 44 45  1  0  0  0
 51 44  1  0  0  0
 52 44  1  0  0  0
 45 46  1  0  0  0
 46 47  1  0  0  0
 47 48  1  0  0  0
 48 49  1  0  0  0
 48 50  2  0  0  0
 55 51  1  0  0  0
 53 52  1  0  0  0
 54 53  1  0  0  0
 55 53  1  0  0  0
 58 54  1  0  0  0
 56 55  1  0  0  0
 56 57  1  0  0  0
 58 56  1  0  0  0
 59 58  1  0  0  0
 60 59  1  0  0  0
 61 60  1  0  0  0
 61 62  1  0  0  0
 61 63  2  0  0  0
 64 61  1  0  0  0
 65 64  1  0  0  0
 65 66  1  0  0  0
 65 67  2  0  0  0
 68 65  1  0  0  0
 69 68  1  0  0  0
 70 69  1  0  0  0
 71 70  1  0  0  0
 72 70  1  0  0  0
 76 71  1  0  0  0
 72 73  1  0  0  0
 74 72  1  0  0  0
 74 75  1  0  0  0
 76 74  1  0  0  0
 76 77  1  0  0  0
  4 81  1  0  0  0
  7 82  1  0  0  0
  8 83  1  0  0  0
  9 84  1  0  0  0
 10 85  1  0  0  0
 14 86  1  0  0  0
 16 87  1  0  0  0
 16 88  1  0  0  0
 17 89  1  0  0  0
 20 90  1  0  0  0
 21 91  1  0  0  0
 22 92  1  0  0  0
 22 93  1  0  0  0
 22 94  1  0  0  0
 23 95  1  0  0  0
 23 96  1  0  0  0
 23 97  1  0  0  0
 24 98  1  0  0  0
 27 99  1  0  0  0
 28100  1  0  0  0
 32101  1  0  0  0
 32102  1  0  0  0
 34103  1  0  0  0
 35104  1  0  0  0
 36105  1  0  0  0
 37106  1  0  0  0
 38107  1  0  0  0
 39108  1  0  0  0
 39109  1  0  0  0
 40110  1  0  0  0
 40111  1  0  0  0
 41112  1  0  0  0
 41113  1  0  0  0
 42114  1  0  0  0
 42115  1  0  0  0
 43116  1  0  0  0
 43117  1  0  0  0
 45118  1  0  0  0
 45119  1  0  0  0
 46120  1  0  0  0
 46121  1  0  0  0
 47122  1  0  0  0
 47123  1  0  0  0
 49124  1  0  0  0
 53125  1  0  0  0
 55126  1  0  0  0
 56127  1  0  0  0
 57128  1  0  0  0
 58129  1  0  0  0
 59130  1  0  0  0
 59131  1  0  0  0
 62132  1  0  0  0
 66133  1  0  0  0
 69134  1  0  0  0
 69135  1  0  0  0
 70136  1  0  0  0
 72137  1  0  0  0
 73138  1  0  0  0
 74139  1  0  0  0
 75140  1  0  0  0
 76141  1  0  0  0
 79142  1  0  0  0
 80143  1  0  0  0
 80144  1  0  0  0
M  END
$$$$
