6eqs_ligand
  -I-interpret- 

142148  0  0  0  0  0  0  0  0999 V2000
    9.8800    7.8090    3.9260 C   0  0  0  0  0
    8.5880    8.4390   -6.7740 C   0  0  0  0  0
   10.2840    6.5400    5.8370 C   0  0  0  0  0
    7.3770    7.5630   -7.0060 C   0  0  0  0  0
    8.1560    9.9380   -4.8720 C   0  0  0  0  0
    4.1000   14.6530    7.1010 C   0  0  0  0  0
    4.8850   15.7740    7.0200 C   0  0  0  0  0
    6.1470   15.7290    6.3950 C   0  0  0  0  0
    6.5790   14.4770    5.8060 C   0  0  0  0  0
    5.7710   13.4010    5.9230 C   0  0  0  0  0
    4.5160   13.4900    6.5610 C   0  0  0  0  0
    3.9360   12.2400    6.4980 N   0  0  0  0  0
    4.7690   11.4220    5.8770 C   0  0  0  0  0
    5.8700   12.0920    5.5200 C   0  0  0  0  0
    7.0020   11.3340    4.7740 C   0  0  0  0  0
    6.9030   11.3880    3.1920 C   0  0  0  0  0
    6.6500   12.8330    2.7790 C   0  0  0  0  0
    7.5680   13.6500    2.7080 O   0  0  0  0  0
    5.3840   13.1400    2.5830 N   0  0  0  0  0
    4.9830   14.4810    2.1770 C   0  0  0  0  0
    4.5060   15.4340    3.3080 C   0  0  0  0  0
    3.8480   14.2470    1.1930 C   0  0  0  0  0
    8.1490   10.8950    2.6000 N   0  0  0  0  0
    8.3310    9.6130    2.3070 C   0  0  0  0  0
    7.3750    8.8680    2.2820 O   0  0  0  0  0
    9.6960    9.1630    1.8440 C   0  0  0  0  0
   10.0000    7.9700    2.5900 N   0  0  0  0  0
    9.4550    8.7280    4.6340 O   0  0  0  0  0
   10.1850    6.6090    4.3780 O   0  0  0  0  0
   11.2210    5.5110    6.2210 C   0  0  0  0  0
   12.4660    5.8760    6.6230 C   0  0  0  0  0
   13.4210    4.9580    7.0360 C   0  0  0  0  0
   13.1230    3.6100    7.0120 C   0  0  0  0  0
   11.8570    3.2120    6.5520 C   0  0  0  0  0
   10.9170    4.1570    6.1540 C   0  0  0  0  0
    9.6780    8.8220    0.2700 C   0  0  0  0  0
    9.4970   10.0650   -0.5890 C   0  0  0  0  0
    9.6150    9.6990   -2.0170 C   0  0  0  0  0
    8.3280    9.1080   -2.5650 C   0  0  0  0  0
    8.3610    8.9600   -4.0340 N   0  0  0  0  0
    8.3250    9.7380   -6.1740 N   0  0  0  0  0
    6.4510    8.0000   -8.1910 C   0  0  0  0  0
    6.6420    9.1230   -8.7260 O   0  0  0  0  0
    5.5270    7.1750   -8.4700 O   0  0  0  0  0
    7.9880   11.5050   -4.2550 S   0  0  0  0  0
    7.3530   12.4220   -5.6180 C   0  0  0  0  0
    6.5510   13.4920   -5.0610 O   0  0  0  0  0
    8.3230   13.2060   -6.5040 C   0  0  0  0  0
    9.4590   12.3940   -6.8440 O   0  0  0  0  0
    8.6760   14.4060   -5.6570 C   0  0  0  0  0
    9.6600   14.0670   -4.7000 O   0  0  0  0  0
    7.3030   14.7400   -5.0470 C   0  0  0  0  0
    6.5590   15.8030   -5.8690 C   0  0  0  0  0
    7.2470   16.9870   -5.6120 O   0  0  0  0  0
    7.7290   17.9340   -6.8090 P   0  0  0  0  0
    8.6000   17.1440   -7.7170 O   0  0  0  0  0
    8.3260   19.0670   -6.1880 O   0  0  0  0  0
    6.3870   18.1930   -7.6580 O   0  0  0  0  0
    5.0450   19.0350   -7.2620 P   0  0  0  0  0
    4.1130   18.6900   -8.3060 O   0  0  0  0  0
    4.7840   18.8780   -5.8200 O   0  0  0  0  0
    5.4700   20.5780   -7.3690 O   0  0  0  0  0
    5.8500   21.0760   -8.6760 C   0  0  0  0  0
    6.4520   22.4820   -8.4240 C   0  0  0  0  0
    6.8640   23.0500   -9.7170 O   0  0  0  0  0
    5.4940   23.5190   -7.7240 C   0  0  0  0  0
    6.2240   24.2070   -6.6830 O   0  0  0  0  0
    5.1440   24.4430   -8.9190 C   0  0  0  0  0
    4.8110   25.7160   -8.4860 O   0  0  0  0  0
    6.3490   24.5100   -9.7280 C   0  0  0  0  0
    6.2040   24.7930  -11.1840 N   0  0  0  0  0
    5.2340   24.4000  -12.0240 C   0  0  0  0  0
    5.5000   24.6900  -13.2830 N   0  0  0  0  0
    6.7320   25.2750  -13.2510 C   0  0  0  0  0
    7.1280   25.3200  -11.9400 C   0  0  0  0  0
    8.2890   25.8040  -11.5450 N   0  0  0  0  0
    9.1490   26.3130  -12.5090 C   0  0  0  0  0
    8.7510   26.2600  -13.8430 N   0  0  0  0  0
    7.5560   25.8270  -14.2190 C   0  0  0  0  0
    7.2080   25.8490  -15.5490 N   0  0  0  0  0
    9.0183    8.6353   -7.7560 H   0  0  0  0  0
    9.2274    7.9008   -6.0743 H   0  0  0  0  0
    9.3038    6.3050    6.2519 H   0  0  0  0  0
   10.6304    7.5005    6.2184 H   0  0  0  0  0
    6.7727    7.6202   -6.1006 H   0  0  0  0  0
    7.7530    6.5704   -7.2538 H   0  0  0  0  0
    3.1346   14.7023    7.6046 H   0  0  0  0  0
    4.5282   16.7123    7.4446 H   0  0  0  0  0
    6.7826   16.6136    6.3554 H   0  0  0  0  0
    7.5320   14.4056    5.2818 H   0  0  0  0  0
    4.5864   10.3646    5.6856 H   0  0  0  0  0
    6.9254   10.2854    5.0616 H   0  0  0  0  0
    7.9411   11.8135    5.0502 H   0  0  0  0  0
    6.0870   10.7570    2.8398 H   0  0  0  0  0
    4.6698   12.4245    2.7182 H   0  0  0  0  0
    5.8548   14.9971    1.7748 H   0  0  0  0  0
    3.6381   15.0004    3.8048 H   0  0  0  0  0
    5.3104   15.5689    4.0310 H   0  0  0  0  0
    4.2361   16.3988    2.8786 H   0  0  0  0  0
    4.2131   13.6561    0.3530 H   0  0  0  0  0
    3.0408   13.7110    1.6922 H   0  0  0  0  0
    3.4792   15.2066    0.8308 H   0  0  0  0  0
    8.9002   11.5574    2.4069 H   0  0  0  0  0
   10.4378    9.9453    2.0046 H   0  0  0  0  0
   10.3390    7.1683    2.0582 H   0  0  0  0  0
   12.7258    6.9346    6.6211 H   0  0  0  0  0
   14.3988    5.2984    7.3767 H   0  0  0  0  0
   13.8535    2.8716    7.3425 H   0  0  0  0  0
   11.6085    2.1517    6.5064 H   0  0  0  0  0
    9.9415    3.8351    5.7894 H   0  0  0  0  0
    8.8383    8.1538    0.0786 H   0  0  0  0  0
   10.6351    8.3690    0.0114 H   0  0  0  0  0
   10.2652   10.7960   -0.3367 H   0  0  0  0  0
    8.5122   10.4941   -0.4041 H   0  0  0  0  0
   10.4002    8.9489   -2.1114 H   0  0  0  0  0
    9.8406   10.6036   -2.5817 H   0  0  0  0  0
    7.5106    9.7830   -2.3111 H   0  0  0  0  0
    8.1972    8.1181   -2.1280 H   0  0  0  0  0
    8.2667   10.5467   -6.7928 H   0  0  0  0  0
    5.6138    6.3984   -7.9123 H   0  0  0  0  0
    6.8870   11.6500   -6.2303 H   0  0  0  0  0
    7.9077   13.5074   -7.4657 H   0  0  0  0  0
   10.0574   12.8992   -7.3993 H   0  0  0  0  0
    9.1196   15.2494   -6.1860 H   0  0  0  0  0
    9.8712   14.8405   -4.1721 H   0  0  0  0  0
    7.4187   15.1471   -4.0425 H   0  0  0  0  0
    5.5075   15.8727   -5.5906 H   0  0  0  0  0
    6.5443   15.5614   -6.9318 H   0  0  0  0  0
    8.1000   16.4086   -8.0786 H   0  0  0  0  0
    5.5502   19.1742   -5.3232 H   0  0  0  0  0
    4.9946   21.1225   -9.3500 H   0  0  0  0  0
    6.5678   20.4153   -9.1621 H   0  0  0  0  0
    7.2802   22.3234   -7.7334 H   0  0  0  0  0
    4.6124   23.1079   -7.2323 H   0  0  0  0  0
    5.6450   24.8405   -6.2528 H   0  0  0  0  0
    4.2884   24.0553   -9.4719 H   0  0  0  0  0
    4.5994   26.2655   -9.2442 H   0  0  0  0  0
    6.9496   25.3181   -9.3104 H   0  0  0  0  0
    4.3237   23.8952  -11.7005 H   0  0  0  0  0
   10.1107   26.7430  -12.2292 H   0  0  0  0  0
    6.3186   25.4507  -15.8501 H   0  0  0  0  0
    7.8393   26.2637  -16.2345 H   0  0  0  0  0
 27  1  1  0  0  0
  1 28  2  0  0  0
  1 29  1  0  0  0
  2  4  1  0  0  0
 41  2  1  0  0  0
 29  3  1  0  0  0
  3 30  1  0  0  0
  4 42  1  0  0  0
 40  5  2  0  0  0
  5 41  1  0  0  0
  5 45  1  0  0  0
  6  7  4  0  0  0
 11  6  4  0  0  0
  8  7  4  0  0  0
  9  8  4  0  0  0
 10  9  4  0  0  0
 10 11  4  0  0  0
 14 10  4  0  0  0
 12 11  4  0  0  0
 13 12  4  0  0  0
 14 13  4  0  0  0
 15 14  1  0  0  0
 16 15  1  0  0  0
 16 17  1  0  0  0
 23 16  1  0  0  0
 17 18  2  0  0  0
 17 19  1  0  0  0
 19 20  1  0  0  0
 20 21  1  0  0  0
 20 22  1  0  0  0
 24 23  1  0  0  0
 24 25  2  0  0  0
 26 24  1  0  0  0
 26 27  1  0  0  0
 36 26  1  0  0  0
 30 31  4  0  0  0
 30 35  4  0  0  0
 31 32  4  0  0  0
 32 33  4  0  0  0
 34 33  4  0  0  0
 35 34  4  0  0  0
 37 36  1  0  0  0
 38 37  1  0  0  0
 39 38  1  0  0  0
 39 40  1  0  0  0
 42 43  2  0  0  0
 42 44  1  0  0  0
 45 46  1  0  0  0
 46 47  1  0  0  0
 46 48  1  0  0  0
 47 52  1  0  0  0
 48 49  1  0  0  0
 48 50  1  0  0  0
 50 51  1  0  0  0
 50 52  1  0  0  0
 52 53  1  0  0  0
 53 54  1  0  0  0
 54 55  1  0  0  0
 55 56  1  0  0  0
 55 57  2  0  0  0
 55 58  1  0  0  0
 58 59  1  0  0  0
 59 60  2  0  0  0
 59 61  1  0  0  0
 59 62  1  0  0  0
 62 63  1  0  0  0
 63 64  1  0  0  0
 64 65  1  0  0  0
 64 66  1  0  0  0
 65 70  1  0  0  0
 66 67  1  0  0  0
 66 68  1  0  0  0
 68 69  1  0  0  0
 68 70  1  0  0  0
 70 71  1  0  0  0
 71 72  4  0  0  0
 71 75  4  0  0  0
 72 73  4  0  0  0
 73 74  4  0  0  0
 74 75  4  0  0  0
 74 79  4  0  0  0
 75 76  4  0  0  0
 76 77  4  0  0  0
 77 78  4  0  0  0
 78 79  4  0  0  0
 79 80  1  0  0  0
  2 81  1  0  0  0
  2 82  1  0  0  0
  3 83  1  0  0  0
  3 84  1  0  0  0
  4 85  1  0  0  0
  4 86  1  0  0  0
  6 87  1  0  0  0
  7 88  1  0  0  0
  8 89  1  0  0  0
  9 90  1  0  0  0
 13 91  1  0  0  0
 15 92  1  0  0  0
 15 93  1  0  0  0
 16 94  1  0  0  0
 19 95  1  0  0  0
 20 96  1  0  0  0
 21 97  1  0  0  0
 21 98  1  0  0  0
 21 99  1  0  0  0
 22100  1  0  0  0
 22101  1  0  0  0
 22102  1  0  0  0
 23103  1  0  0  0
 26104  1  0  0  0
 27105  1  0  0  0
 31106  1  0  0  0
 32107  1  0  0  0
 33108  1  0  0  0
 34109  1  0  0  0
 35110  1  0  0  0
 36111  1  0  0  0
 36112  1  0  0  0
 37113  1  0  0  0
 37114  1  0  0  0
 38115  1  0  0  0
 38116  1  0  0  0
 39117  1  0  0  0
 39118  1  0  0  0
 41119  1  0  0  0
 44120  1  0  0  0
 46121  1  0  0  0
 48122  1  0  0  0
 49123  1  0  0  0
 50124  1  0  0  0
 51125  1  0  0  0
 52126  1  0  0  0
 53127  1  0  0  0
 53128  1  0  0  0
 56129  1  0  0  0
 61130  1  0  0  0
 63131  1  0  0  0
 63132  1  0  0  0
 64133  1  0  0  0
 66134  1  0  0  0
 67135  1  0  0  0
 68136  1  0  0  0
 69137  1  0  0  0
 70138  1  0  0  0
 72139  1  0  0  0
 77140  1  0  0  0
 80141  1  0  0  0
 80142  1  0  0  0
M  END
$$$$
