6g6x_ligand
  -I-interpret- 

131132  0  0  0  0  0  0  0  0999 V2000
   13.4810  -11.5110  -15.0460 N   0  3  0  0  0
   13.0270  -12.7420  -14.4280 C   0  0  0  0  0
   13.5010  -12.8110  -12.9780 C   0  0  0  0  0
   14.4780  -12.1680  -12.5860 O   0  0  0  0  0
   13.5410  -13.9170  -15.2180 C   0  0  0  0  0
   12.7770  -13.5870  -12.1890 N   0  0  0  0  0
   13.1340  -13.8410  -10.8090 C   0  0  0  0  0
   14.1590  -14.9470  -10.7180 C   0  0  0  0  0
   13.9960  -15.9970  -11.3190 O   0  0  0  0  0
   11.8890  -14.2680  -10.0540 C   0  0  0  0  0
   10.7820  -13.2670  -10.1410 C   0  0  0  0  0
   10.7480  -12.1380   -9.3510 N   0  0  0  0  0
    9.7020  -13.1890  -10.9560 C   0  0  0  0  0
    9.6730  -11.4270   -9.6480 C   0  0  0  0  0
    9.0280  -12.0380  -10.6240 N   0  0  0  0  0
   15.2180  -14.7280   -9.9560 N   0  0  0  0  0
   16.1430  -15.7980   -9.6450 C   0  0  0  0  0
   17.5660  -15.4740  -10.1080 C   0  0  0  0  0
   17.9710  -14.2600   -9.4870 O   0  0  0  0  0
   16.0410  -16.1260   -8.1680 C   0  0  0  0  0
   15.2540  -15.5190   -7.4340 O   0  0  0  0  0
   19.4300  -13.7000   -9.8720 P   0  0  0  0  0
   19.4550  -13.3470  -11.3740 O   0  0  0  0  0
   19.5920  -12.4700   -8.9670 O   0  0  0  0  0
   20.4780  -14.8280   -9.5840 O   0  0  0  0  0
   16.7860  -17.1330   -7.7420 N   0  0  0  0  0
   16.6030  -17.6450   -6.3970 C   0  0  0  0  0
   17.0340  -16.6060   -5.3840 C   0  0  0  0  0
   17.9540  -15.8420   -5.6030 O   0  0  0  0  0
   17.3860  -18.9400   -6.2010 C   0  0  0  0  0
   18.7680  -18.6790   -6.0570 O   0  0  0  0  0
   17.4010  -15.6050   -0.8890 C   0  0  0  0  0
   17.3620  -16.4170   -2.1610 C   0  0  0  0  0
   16.4310  -15.7450   -3.1850 C   0  0  0  0  0
   15.0490  -15.4810   -2.5840 C   0  0  0  0  0
   14.2330  -16.7410   -2.8260 C   0  0  0  0  0
   14.9810  -17.5050   -3.9130 C   0  0  0  0  0
   16.1710  -16.6910   -4.2540 N   0  0  0  0  0
   17.9730  -14.5390   -0.8430 O   0  0  0  0  0
   16.8060  -16.4860    0.0680 N   0  0  0  0  0
   16.5760  -15.7710    1.3170 C   0  0  0  0  0
   17.5470  -16.2360    2.4020 C   0  0  0  0  0
   18.1990  -17.2770    2.2780 O   0  0  0  0  0
   15.1390  -15.9690    1.7710 C   0  0  0  0  0
   17.6350  -15.4560    3.4720 N   0  0  0  0  0
   18.5220  -15.7700    4.5810 C   0  0  0  0  0
   17.8300  -16.6940    5.5740 C   0  0  0  0  0
   16.6410  -16.5370    5.8650 O   0  0  0  0  0
   18.9350  -14.4860    5.2970 C   0  0  0  0  0
   19.7710  -14.7740    6.4040 O   0  0  0  0  0
   18.5880  -17.6650    6.0900 N   0  0  0  0  0
   18.1020  -18.4870    7.1920 C   0  0  0  0  0
   18.0700  -17.7160    8.5030 C   0  0  0  0  0
   17.4240  -18.1650    9.4570 O   0  0  0  0  0
   18.9940  -19.7180    7.3660 C   0  0  0  0  0
   19.0060  -20.7520    6.2390 C   0  0  0  0  0
   20.0520  -21.8200    6.5280 C   0  0  0  0  0
   17.6300  -21.3780    6.0620 C   0  0  0  0  0
   18.7510  -16.5750    8.5720 N   0  0  0  0  0
   18.8290  -15.7910    9.7980 C   0  0  0  0  0
   17.5810  -14.9340    9.9720 C   0  0  0  0  0
   16.7640  -14.8140    9.0580 O   0  0  0  0  0
   20.0710  -14.8980    9.7710 C   0  0  0  0  0
   21.3620  -15.6500    9.5090 C   0  0  0  0  0
   21.6740  -16.6750   10.5850 C   0  0  0  0  0
   21.4940  -16.4190   11.7790 O   0  0  0  0  0
   22.1470  -17.8410   10.1670 N   0  0  0  0  0
   17.3620  -14.3430   11.0320 O   0  0  0  0  0
   13.1331  -10.7151  -14.5113 H   0  0  0  0  0
   14.5008  -11.4942  -15.0584 H   0  0  0  0  0
   13.1273  -11.4610  -16.0014 H   0  0  0  0  0
   11.9373  -12.7686  -14.4268 H   0  0  0  0  0
   14.6309  -13.9135  -15.2044 H   0  0  0  0  0
   13.1738  -14.8414  -14.7723 H   0  0  0  0  0
   13.1889  -13.8434  -16.2469 H   0  0  0  0  0
   11.9357  -14.0228  -12.5667 H   0  0  0  0  0
   13.5555  -12.9319  -10.3802 H   0  0  0  0  0
   12.1580  -14.3755   -9.0032 H   0  0  0  0  0
   11.5327  -15.1971  -10.4990 H   0  0  0  0  0
    9.4209  -13.9042  -11.7290 H   0  0  0  0  0
    9.3713  -10.4957   -9.1687 H   0  0  0  0  0
   15.3852  -13.7936   -9.5828 H   0  0  0  0  0
   15.8703  -16.6940  -10.2026 H   0  0  0  0  0
   17.5914  -15.3664  -11.1924 H   0  0  0  0  0
   18.2433  -16.2812   -9.8291 H   0  0  0  0  0
   19.3503  -14.1486  -11.8917 H   0  0  0  0  0
   20.3245  -15.5654  -10.1792 H   0  0  0  0  0
   17.4863  -17.5477   -8.3568 H   0  0  0  0  0
   15.5454  -17.8632   -6.2488 H   0  0  0  0  0
   17.2389  -19.5736   -7.0756 H   0  0  0  0  0
   17.0269  -19.4326   -5.2974 H   0  0  0  0  0
   19.2379  -19.5072   -5.9353 H   0  0  0  0  0
   16.9881  -17.4162   -1.9376 H   0  0  0  0  0
   18.3674  -16.4802   -2.5774 H   0  0  0  0  0
   16.9119  -14.8220   -3.5090 H   0  0  0  0  0
   14.5786  -14.6134   -3.0468 H   0  0  0  0  0
   15.1198  -15.2572   -1.5196 H   0  0  0  0  0
   13.2136  -16.5053   -3.1316 H   0  0  0  0  0
   14.1327  -17.3338   -1.9168 H   0  0  0  0  0
   14.3492  -17.6591   -4.7877 H   0  0  0  0  0
   15.2721  -18.4959   -3.5645 H   0  0  0  0  0
   16.5774  -17.4660   -0.0985 H   0  0  0  0  0
   16.7508  -14.7093    1.1431 H   0  0  0  0  0
   14.4620  -15.5860    1.0074 H   0  0  0  0  0
   14.9511  -17.0316    1.9250 H   0  0  0  0  0
   14.9770  -15.4309    2.7050 H   0  0  0  0  0
   17.0641  -14.6120    3.5180 H   0  0  0  0  0
   19.4046  -16.2702    4.1824 H   0  0  0  0  0
   18.0388  -13.9797    5.6556 H   0  0  0  0  0
   19.4828  -13.8542    4.5978 H   0  0  0  0  0
   20.0182  -13.9545    6.8386 H   0  0  0  0  0
   19.5187  -17.8337    5.7084 H   0  0  0  0  0
   17.0849  -18.7892    6.9423 H   0  0  0  0  0
   18.6020  -20.2414    8.2380 H   0  0  0  0  0
   20.0129  -19.3346    7.4211 H   0  0  0  0  0
   19.2647  -20.2497    5.3069 H   0  0  0  0  0
   21.0348  -21.3541    6.6002 H   0  0  0  0  0
   19.8132  -22.3153    7.4691 H   0  0  0  0  0
   20.0542  -22.5525    5.7208 H   0  0  0  0  0
   17.3349  -21.8714    6.9881 H   0  0  0  0  0
   16.9071  -20.5999    5.8170 H   0  0  0  0  0
   17.6661  -22.1094    5.2547 H   0  0  0  0  0
   19.2344  -16.2380    7.7394 H   0  0  0  0  0
   18.8977  -16.4790   10.6406 H   0  0  0  0  0
   20.1590  -14.4348   10.7537 H   0  0  0  0  0
   19.9401  -14.1846    8.9573 H   0  0  0  0  0
   22.1745  -14.9236    9.4940 H   0  0  0  0  0
   21.2532  -16.1810    8.5633 H   0  0  0  0  0
   22.3778  -18.5695   10.8426 H   0  0  0  0  0
   22.2801  -18.0095    9.1699 H   0  0  0  0  0
   18.0736  -14.5235   11.6506 H   0  0  0  0  0
  2  1  1  0  0  0
  3  2  1  0  0  0
  2  5  1  0  0  0
  3  4  2  0  0  0
  6  3  1  0  0  0
  7  6  1  0  0  0
  8  7  1  0  0  0
  7 10  1  0  0  0
  8  9  2  0  0  0
 16  8  1  0  0  0
 10 11  1  0  0  0
 11 12  4  0  0  0
 11 13  4  0  0  0
 12 14  4  0  0  0
 13 15  4  0  0  0
 15 14  4  0  0  0
 17 16  1  0  0  0
 17 18  1  0  0  0
 20 17  1  0  0  0
 18 19  1  0  0  0
 19 22  1  0  0  0
 20 21  2  0  0  0
 26 20  1  0  0  0
 22 23  1  0  0  0
 22 24  2  0  0  0
 22 25  1  0  0  0
 27 26  1  0  0  0
 28 27  1  0  0  0
 27 30  1  0  0  0
 28 29  2  0  0  0
 38 28  1  0  0  0
 30 31  1  0  0  0
 33 32  1  0  0  0
 32 39  2  0  0  0
 32 40  1  0  0  0
 34 33  1  0  0  0
 34 35  1  0  0  0
 34 38  1  0  0  0
 35 36  1  0  0  0
 36 37  1  0  0  0
 37 38  1  0  0  0
 40 41  1  0  0  0
 41 42  1  0  0  0
 41 44  1  0  0  0
 42 43  2  0  0  0
 42 45  1  0  0  0
 45 46  1  0  0  0
 46 47  1  0  0  0
 46 49  1  0  0  0
 47 48  2  0  0  0
 47 51  1  0  0  0
 49 50  1  0  0  0
 51 52  1  0  0  0
 52 53  1  0  0  0
 52 55  1  0  0  0
 53 54  2  0  0  0
 53 59  1  0  0  0
 55 56  1  0  0  0
 56 57  1  0  0  0
 56 58  1  0  0  0
 59 60  1  0  0  0
 60 61  1  0  0  0
 60 63  1  0  0  0
 61 62  2  0  0  0
 61 68  1  0  0  0
 63 64  1  0  0  0
 64 65  1  0  0  0
 65 66  2  0  0  0
 65 67  1  0  0  0
  1 69  1  0  0  0
  1 70  1  0  0  0
  1 71  1  0  0  0
  2 72  1  0  0  0
  5 73  1  0  0  0
  5 74  1  0  0  0
  5 75  1  0  0  0
  6 76  1  0  0  0
  7 77  1  0  0  0
 10 78  1  0  0  0
 10 79  1  0  0  0
 13 80  1  0  0  0
 14 81  1  0  0  0
 16 82  1  0  0  0
 17 83  1  0  0  0
 18 84  1  0  0  0
 18 85  1  0  0  0
 23 86  1  0  0  0
 25 87  1  0  0  0
 26 88  1  0  0  0
 27 89  1  0  0  0
 30 90  1  0  0  0
 30 91  1  0  0  0
 31 92  1  0  0  0
 33 93  1  0  0  0
 33 94  1  0  0  0
 34 95  1  0  0  0
 35 96  1  0  0  0
 35 97  1  0  0  0
 36 98  1  0  0  0
 36 99  1  0  0  0
 37100  1  0  0  0
 37101  1  0  0  0
 40102  1  0  0  0
 41103  1  0  0  0
 44104  1  0  0  0
 44105  1  0  0  0
 44106  1  0  0  0
 45107  1  0  0  0
 46108  1  0  0  0
 49109  1  0  0  0
 49110  1  0  0  0
 50111  1  0  0  0
 51112  1  0  0  0
 52113  1  0  0  0
 55114  1  0  0  0
 55115  1  0  0  0
 56116  1  0  0  0
 57117  1  0  0  0
 57118  1  0  0  0
 57119  1  0  0  0
 58120  1  0  0  0
 58121  1  0  0  0
 58122  1  0  0  0
 59123  1  0  0  0
 60124  1  0  0  0
 63125  1  0  0  0
 63126  1  0  0  0
 64127  1  0  0  0
 64128  1  0  0  0
 67129  1  0  0  0
 67130  1  0  0  0
 68131  1  0  0  0
M  END
$$$$
