6g8i_ligand
  -I-interpret- 

128129  0  0  0  0  0  0  0  0999 V2000
   12.8590  -11.3970  -14.9980 N   0  3  0  0  0
   12.6210  -12.7060  -14.3950 C   0  0  0  0  0
   13.2220  -12.8150  -13.0050 C   0  0  0  0  0
   14.2400  -12.2060  -12.7010 O   0  0  0  0  0
   13.1950  -13.8290  -15.2800 C   0  0  0  0  0
   12.5800  -13.6200  -12.1690 N   0  0  0  0  0
   13.0360  -13.8660  -10.8220 C   0  0  0  0  0
   14.0570  -14.9740  -10.7540 C   0  0  0  0  0
   13.8430  -16.0530  -11.3020 O   0  0  0  0  0
   11.8510  -14.2430   -9.9130 C   0  0  0  0  0
   10.6910  -13.3020   -9.9980 C   0  0  0  0  0
   10.4260  -12.3590   -9.0270 N   0  0  0  0  0
    9.7190  -13.1660  -10.9330 C   0  0  0  0  0
    9.3440  -11.6780   -9.3670 C   0  0  0  0  0
    8.8970  -12.1480  -10.5190 N   0  0  0  0  0
   15.1630  -14.7340  -10.0560 N   0  0  0  0  0
   16.0950  -15.8580   -9.7620 C   0  0  0  0  0
   17.5510  -15.4750  -10.1290 C   0  0  0  0  0
   17.9000  -14.2870   -9.4720 O   0  0  0  0  0
   15.9270  -16.2480   -8.2850 C   0  0  0  0  0
   15.1450  -15.6380   -7.5550 O   0  0  0  0  0
   19.3670  -13.7670   -9.8580 P   0  0  0  0  0
   19.4260  -13.4060  -11.3510 O   0  0  0  0  0
   19.4910  -12.5000   -8.9310 O   0  0  0  0  0
   20.4500  -14.8590   -9.4970 O   0  0  0  0  0
   16.6680  -17.2570   -7.8580 N   0  0  0  0  0
   16.4660  -17.8730   -6.5670 C   0  0  0  0  0
   16.9010  -16.9350   -5.4580 C   0  0  0  0  0
   17.8020  -16.1290   -5.6460 O   0  0  0  0  0
   17.2410  -19.1860   -6.4770 C   0  0  0  0  0
   18.6340  -18.9480   -6.4440 O   0  0  0  0  0
   16.2470  -17.0330   -4.3060 N   0  0  0  0  0
   16.8170  -16.4060   -3.1070 C   0  0  0  0  0
   18.1990  -16.9940   -2.8490 C   0  0  0  0  0
   18.5290  -18.0980   -3.2910 O   0  0  0  0  0
   15.8450  -16.7830   -1.9740 C   0  0  0  0  0
   14.6230  -17.3420   -2.6420 C   0  0  0  0  0
   15.0720  -17.8710   -3.9950 C   0  0  0  0  0
   19.0100  -16.2400   -2.1100 N   0  0  0  0  0
   20.3480  -16.7070   -1.7710 C   0  0  0  0  0
   20.3060  -17.8410   -0.7640 C   0  0  0  0  0
   21.1100  -18.7830   -0.8300 O   0  0  0  0  0
   21.1640  -15.5500   -1.2020 C   0  0  0  0  0
   19.3850  -17.7690    0.1890 N   0  0  0  0  0
   19.3240  -18.7480    1.2740 C   0  0  0  0  0
   18.3390  -19.8420    0.8790 C   0  0  0  0  0
   17.1710  -19.5550    0.6080 O   0  0  0  0  0
   18.8970  -18.0620    2.5650 C   0  0  0  0  0
   18.9580  -18.9690    3.6520 O   0  0  0  0  0
   18.8070  -21.0890    0.8780 N   0  0  0  0  0
   18.0190  -22.2470    0.4570 C   0  0  0  0  0
   18.1750  -23.3490    1.4950 C   0  0  0  0  0
   19.2970  -23.7440    1.8370 O   0  0  0  0  0
   18.4760  -22.7340   -0.9060 C   0  0  0  0  0
   18.2810  -21.7380   -2.0360 C   0  0  0  0  0
   19.0750  -22.1530   -3.2690 C   0  0  0  0  0
   16.7940  -21.6000   -2.3540 C   0  0  0  0  0
   17.0610  -23.8260    2.0090 N   0  0  0  0  0
   17.1110  -24.8440    3.0650 C   0  0  0  0  0
   17.5180  -26.2250    2.5240 C   0  0  0  0  0
   17.0620  -26.7120    1.4920 O   0  0  0  0  0
   15.7550  -24.9150    3.7780 C   0  0  0  0  0
   15.3040  -23.6080    4.3960 C   0  0  0  0  0
   14.8040  -22.5960    3.3670 C   0  0  0  0  0
   14.5840  -22.9330    2.1880 O   0  0  0  0  0
   14.6180  -21.3470    3.8090 N   0  0  0  0  0
   18.3540  -26.9110    3.1210 O   0  0  0  0  0
   12.4712  -10.6709  -14.3957 H   0  0  0  0  0
   13.8627  -11.2510  -15.1055 H   0  0  0  0  0
   12.4087  -11.3583  -15.9124 H   0  0  0  0  0
   11.5398  -12.8168  -14.3118 H   0  0  0  0  0
   14.2785  -13.7258  -15.3385 H   0  0  0  0  0
   12.9439  -14.7966  -14.8454 H   0  0  0  0  0
   12.7673  -13.7563  -16.2799 H   0  0  0  0  0
   11.7303  -14.0836  -12.4908 H   0  0  0  0  0
   13.5026  -12.9417  -10.4814 H   0  0  0  0  0
   12.2125  -14.2166   -8.8850 H   0  0  0  0  0
   11.4961  -15.2217  -10.2358 H   0  0  0  0  0
    9.6105  -13.7552  -11.8436 H   0  0  0  0  0
    8.8964  -10.8661   -8.7938 H   0  0  0  0  0
   15.3707  -13.7915   -9.7259 H   0  0  0  0  0
   15.8572  -16.7277  -10.3745 H   0  0  0  0  0
   17.6288  -15.3311  -11.2067 H   0  0  0  0  0
   18.2260  -16.2733   -9.8204 H   0  0  0  0  0
   19.4493  -12.7724   -8.0114 H   0  0  0  0  0
   20.3934  -15.0672   -8.5616 H   0  0  0  0  0
   17.4088  -17.6130   -8.4620 H   0  0  0  0  0
   15.4031  -18.0839   -6.4494 H   0  0  0  0  0
   17.0093  -19.7907   -7.3538 H   0  0  0  0  0
   16.9517  -19.7019   -5.5614 H   0  0  0  0  0
   19.0994  -19.7858   -6.3875 H   0  0  0  0  0
   16.9320  -15.3259   -3.1974 H   0  0  0  0  0
   15.5973  -15.9151   -1.3628 H   0  0  0  0  0
   16.2922  -17.5117   -1.2979 H   0  0  0  0  0
   13.8573  -16.5750   -2.7582 H   0  0  0  0  0
   14.1793  -18.1358   -2.0411 H   0  0  0  0  0
   15.3055  -18.9355   -3.9760 H   0  0  0  0  0
   14.2928  -17.8044   -4.7543 H   0  0  0  0  0
   18.6925  -15.3290   -1.7788 H   0  0  0  0  0
   20.8139  -17.0824   -2.6821 H   0  0  0  0  0
   21.2340  -14.7562   -1.9456 H   0  0  0  0  0
   20.6747  -15.1681   -0.3060 H   0  0  0  0  0
   22.1641  -15.9021   -0.9494 H   0  0  0  0  0
   18.7023  -17.0116    0.1641 H   0  0  0  0  0
   20.3043  -19.1933    1.4438 H   0  0  0  0  0
   17.8718  -17.7081    2.4559 H   0  0  0  0  0
   19.5697  -17.2272    2.7619 H   0  0  0  0  0
   18.6862  -18.5213    4.4565 H   0  0  0  0  0
   19.7664  -21.2447    1.1874 H   0  0  0  0  0
   16.9692  -21.9649    0.3769 H   0  0  0  0  0
   17.8732  -23.6093   -1.1479 H   0  0  0  0  0
   19.5469  -22.9232   -0.8319 H   0  0  0  0  0
   18.6577  -20.7656   -1.7188 H   0  0  0  0  0
   20.1350  -22.1974   -3.0190 H   0  0  0  0  0
   18.7378  -23.1341   -3.6035 H   0  0  0  0  0
   18.9180  -21.4232   -4.0633 H   0  0  0  0  0
   16.3966  -22.5693   -2.6549 H   0  0  0  0  0
   16.2654  -21.2484   -1.4680 H   0  0  0  0  0
   16.6622  -20.8841   -3.1653 H   0  0  0  0  0
   16.1599  -23.4869    1.6722 H   0  0  0  0  0
   17.8803  -24.5491    3.7787 H   0  0  0  0  0
   15.8581  -25.6343    4.5905 H   0  0  0  0  0
   15.0128  -25.1869    3.0275 H   0  0  0  0  0
   16.1637  -23.1678    4.9012 H   0  0  0  0  0
   14.4765  -23.8297    5.0699 H   0  0  0  0  0
   14.2827  -20.6250    3.1713 H   0  0  0  0  0
   14.8115  -21.1168    4.7837 H   0  0  0  0  0
   18.6457  -26.4449    3.9079 H   0  0  0  0  0
  1  2  1  0  0  0
  2  3  1  0  0  0
  2  5  1  0  0  0
  3  4  2  0  0  0
  3  6  1  0  0  0
  6  7  1  0  0  0
  7  8  1  0  0  0
  7 10  1  0  0  0
  8  9  2  0  0  0
  8 16  1  0  0  0
 10 11  1  0  0  0
 11 12  4  0  0  0
 11 13  4  0  0  0
 12 14  4  0  0  0
 13 15  4  0  0  0
 14 15  4  0  0  0
 16 17  1  0  0  0
 17 18  1  0  0  0
 17 20  1  0  0  0
 18 19  1  0  0  0
 19 22  1  0  0  0
 20 21  2  0  0  0
 20 26  1  0  0  0
 22 23  2  0  0  0
 22 24  1  0  0  0
 22 25  1  0  0  0
 26 27  1  0  0  0
 27 28  1  0  0  0
 27 30  1  0  0  0
 28 29  2  0  0  0
 28 32  1  0  0  0
 30 31  1  0  0  0
 32 33  1  0  0  0
 32 38  1  0  0  0
 33 34  1  0  0  0
 33 36  1  0  0  0
 34 35  2  0  0  0
 34 39  1  0  0  0
 36 37  1  0  0  0
 37 38  1  0  0  0
 39 40  1  0  0  0
 40 41  1  0  0  0
 40 43  1  0  0  0
 41 42  2  0  0  0
 41 44  1  0  0  0
 44 45  1  0  0  0
 45 46  1  0  0  0
 45 48  1  0  0  0
 46 47  2  0  0  0
 46 50  1  0  0  0
 48 49  1  0  0  0
 50 51  1  0  0  0
 51 52  1  0  0  0
 51 54  1  0  0  0
 52 53  2  0  0  0
 52 58  1  0  0  0
 54 55  1  0  0  0
 55 56  1  0  0  0
 55 57  1  0  0  0
 58 59  1  0  0  0
 59 60  1  0  0  0
 59 62  1  0  0  0
 60 61  2  0  0  0
 60 67  1  0  0  0
 62 63  1  0  0  0
 63 64  1  0  0  0
 64 65  2  0  0  0
 64 66  1  0  0  0
  1 68  1  0  0  0
  1 69  1  0  0  0
  1 70  1  0  0  0
  2 71  1  0  0  0
  5 72  1  0  0  0
  5 73  1  0  0  0
  5 74  1  0  0  0
  6 75  1  0  0  0
  7 76  1  0  0  0
 10 77  1  0  0  0
 10 78  1  0  0  0
 13 79  1  0  0  0
 14 80  1  0  0  0
 16 81  1  0  0  0
 17 82  1  0  0  0
 18 83  1  0  0  0
 18 84  1  0  0  0
 24 85  1  0  0  0
 25 86  1  0  0  0
 26 87  1  0  0  0
 27 88  1  0  0  0
 30 89  1  0  0  0
 30 90  1  0  0  0
 31 91  1  0  0  0
 33 92  1  0  0  0
 36 93  1  0  0  0
 36 94  1  0  0  0
 37 95  1  0  0  0
 37 96  1  0  0  0
 38 97  1  0  0  0
 38 98  1  0  0  0
 39 99  1  0  0  0
 40100  1  0  0  0
 43101  1  0  0  0
 43102  1  0  0  0
 43103  1  0  0  0
 44104  1  0  0  0
 45105  1  0  0  0
 48106  1  0  0  0
 48107  1  0  0  0
 49108  1  0  0  0
 50109  1  0  0  0
 51110  1  0  0  0
 54111  1  0  0  0
 54112  1  0  0  0
 55113  1  0  0  0
 56114  1  0  0  0
 56115  1  0  0  0
 56116  1  0  0  0
 57117  1  0  0  0
 57118  1  0  0  0
 57119  1  0  0  0
 58120  1  0  0  0
 59121  1  0  0  0
 62122  1  0  0  0
 62123  1  0  0  0
 63124  1  0  0  0
 63125  1  0  0  0
 66126  1  0  0  0
 66127  1  0  0  0
 67128  1  0  0  0
M  END
$$$$
