6g8j_ligand
  -I-interpret- 

 83 84  0  0  0  0  0  0  0  0999 V2000
   13.2630  -11.4860  -15.0680 N   0  3  0  0  0
   12.8660  -12.7620  -14.4830 C   0  0  0  0  0
   13.3890  -12.8870  -13.0600 C   0  0  0  0  0
   14.4080  -12.2930  -12.7060 O   0  0  0  0  0
   13.3790  -13.9090  -15.3320 C   0  0  0  0  0
   12.6950  -13.6780  -12.2490 N   0  0  0  0  0
   13.0770  -13.8830  -10.8600 C   0  0  0  0  0
   14.0600  -15.0340  -10.7220 C   0  0  0  0  0
   13.8400  -16.1140  -11.2600 O   0  0  0  0  0
   11.8300  -14.1750  -10.0300 C   0  0  0  0  0
   10.7110  -13.2140  -10.2810 C   0  0  0  0  0
   10.6260  -11.9910   -9.6520 N   0  0  0  0  0
    9.6380  -13.2890  -11.1050 C   0  0  0  0  0
    9.5450  -11.3570  -10.0710 C   0  0  0  0  0
    8.9280  -12.1230  -10.9530 N   0  0  0  0  0
   15.1510  -14.8020   -9.9980 N   0  0  0  0  0
   16.0960  -15.8740   -9.6970 C   0  0  0  0  0
   17.5300  -15.4970  -10.0880 C   0  0  0  0  0
   17.8980  -14.2910   -9.4510 O   0  0  0  0  0
   15.9700  -16.2040   -8.2110 C   0  0  0  0  0
   15.2050  -15.5550   -7.4840 O   0  0  0  0  0
   19.3650  -13.7540   -9.8490 P   0  0  0  0  0
   19.3840  -13.3600  -11.3910 O   0  0  0  0  0
   19.5540  -12.4690   -8.9150 O   0  0  0  0  0
   20.4420  -14.8770   -9.5190 O   0  0  0  0  0
   16.7020  -17.2140   -7.7600 N   0  0  0  0  0
   16.4720  -17.7830   -6.4380 C   0  0  0  0  0
   16.8470  -16.7980   -5.3360 C   0  0  0  0  0
   17.8520  -16.0990   -5.4480 O   0  0  0  0  0
   17.2600  -19.0830   -6.2650 C   0  0  0  0  0
   18.6470  -18.8300   -6.1250 O   0  0  0  0  0
   16.0430  -16.7410   -4.2660 N   0  0  0  0  0
   16.3810  -15.8760   -3.1320 C   0  0  0  0  0
   17.4290  -16.5100   -2.2250 C   0  0  0  0  0
   17.6870  -17.7060   -2.3510 O   0  0  0  0  0
   15.0480  -15.7360   -2.3930 C   0  0  0  0  0
   14.3160  -16.9950   -2.6960 C   0  0  0  0  0
   14.7300  -17.3900   -4.0930 C   0  0  0  0  0
   20.6370  -15.7460   -0.8810 C   0  0  0  0  0
   19.2950  -16.4370   -0.5760 C   0  0  0  0  0
   18.1910  -15.7650   -1.2720 N   0  0  0  0  0
   19.0110  -16.3400    0.9430 C   0  0  0  0  0
   17.7460  -17.0890    1.2940 C   0  0  0  0  0
   16.6600  -16.5440    1.2100 O   0  0  0  0  0
   12.9122  -10.7237  -14.4882 H   0  0  0  0  0
   14.2807  -11.4375  -15.1163 H   0  0  0  0  0
   12.8727  -11.4078  -16.0071 H   0  0  0  0  0
   11.7772  -12.8033  -14.4540 H   0  0  0  0  0
   14.4687  -13.8881  -15.3485 H   0  0  0  0  0
   13.0389  -14.8537  -14.9079 H   0  0  0  0  0
   12.9969  -13.8068  -16.3477 H   0  0  0  0  0
   11.8697  -14.1559  -12.6108 H   0  0  0  0  0
   13.5631  -12.9760  -10.5007 H   0  0  0  0  0
   12.1071  -14.0896   -8.9793 H   0  0  0  0  0
   11.4775  -15.1691  -10.3051 H   0  0  0  0  0
    9.3855  -14.1191  -11.7648 H   0  0  0  0  0
    9.2179  -10.3698   -9.7444 H   0  0  0  0  0
   15.3306  -13.8611   -9.6476 H   0  0  0  0  0
   15.8581  -16.7577  -10.2891 H   0  0  0  0  0
   17.5863  -15.3657  -11.1686 H   0  0  0  0  0
   18.2090  -16.2908   -9.7768 H   0  0  0  0  0
   18.7242  -12.6822  -11.5551 H   0  0  0  0  0
   18.8908  -11.8119   -9.1386 H   0  0  0  0  0
   17.4397  -17.5997   -8.3494 H   0  0  0  0  0
   15.4069  -17.9994   -6.3554 H   0  0  0  0  0
   17.1078  -19.7012   -7.1498 H   0  0  0  0  0
   16.9065  -19.5856   -5.3647 H   0  0  0  0  0
   19.1138  -19.6621   -6.0185 H   0  0  0  0  0
   16.8111  -14.9256   -3.4481 H   0  0  0  0  0
   14.4938  -14.8548   -2.7162 H   0  0  0  0  0
   15.1893  -15.5949   -1.3214 H   0  0  0  0  0
   13.2376  -16.8509   -2.6293 H   0  0  0  0  0
   14.5591  -17.7764   -1.9760 H   0  0  0  0  0
   14.7808  -18.4712   -4.2213 H   0  0  0  0  0
   14.0077  -17.0736   -4.8455 H   0  0  0  0  0
   20.8258  -15.7794   -1.9540 H   0  0  0  0  0
   20.5932  -14.7082   -0.5507 H   0  0  0  0  0
   21.4386  -16.2630   -0.3535 H   0  0  0  0  0
   19.3635  -17.4735   -0.9063 H   0  0  0  0  0
   17.9722  -14.7875   -1.0798 H   0  0  0  0  0
   18.8884  -15.2914    1.2140 H   0  0  0  0  0
   19.8460  -16.7802    1.4882 H   0  0  0  0  0
   17.8061  -18.1257    1.6251 H   0  0  0  0  0
  2  1  1  0  0  0
  3  2  1  0  0  0
  2  5  1  0  0  0
  3  4  2  0  0  0
  6  3  1  0  0  0
  7  6  1  0  0  0
  8  7  1  0  0  0
  7 10  1  0  0  0
  8  9  2  0  0  0
 16  8  1  0  0  0
 10 11  1  0  0  0
 11 12  4  0  0  0
 11 13  4  0  0  0
 12 14  4  0  0  0
 13 15  4  0  0  0
 15 14  4  0  0  0
 17 16  1  0  0  0
 17 18  1  0  0  0
 20 17  1  0  0  0
 18 19  1  0  0  0
 19 22  1  0  0  0
 20 21  2  0  0  0
 26 20  1  0  0  0
 22 23  1  0  0  0
 22 24  1  0  0  0
 22 25  2  0  0  0
 27 26  1  0  0  0
 28 27  1  0  0  0
 27 30  1  0  0  0
 28 29  2  0  0  0
 32 28  1  0  0  0
 30 31  1  0  0  0
 33 32  1  0  0  0
 32 38  1  0  0  0
 34 33  1  0  0  0
 33 36  1  0  0  0
 34 35  2  0  0  0
 41 34  1  0  0  0
 36 37  1  0  0  0
 37 38  1  0  0  0
 40 39  1  0  0  0
 40 41  1  0  0  0
 40 42  1  0  0  0
 42 43  1  0  0  0
 43 44  2  0  0  0
  1 45  1  0  0  0
  1 46  1  0  0  0
  1 47  1  0  0  0
  2 48  1  0  0  0
  5 49  1  0  0  0
  5 50  1  0  0  0
  5 51  1  0  0  0
  6 52  1  0  0  0
  7 53  1  0  0  0
 10 54  1  0  0  0
 10 55  1  0  0  0
 13 56  1  0  0  0
 14 57  1  0  0  0
 16 58  1  0  0  0
 17 59  1  0  0  0
 18 60  1  0  0  0
 18 61  1  0  0  0
 23 62  1  0  0  0
 24 63  1  0  0  0
 26 64  1  0  0  0
 27 65  1  0  0  0
 30 66  1  0  0  0
 30 67  1  0  0  0
 31 68  1  0  0  0
 33 69  1  0  0  0
 36 70  1  0  0  0
 36 71  1  0  0  0
 37 72  1  0  0  0
 37 73  1  0  0  0
 38 74  1  0  0  0
 38 75  1  0  0  0
 39 76  1  0  0  0
 39 77  1  0  0  0
 39 78  1  0  0  0
 40 79  1  0  0  0
 41 80  1  0  0  0
 42 81  1  0  0  0
 42 82  1  0  0  0
 43 83  1  0  0  0
M  END
$$$$
