6g8l_ligand
  -I-interpret- 

131132  0  0  0  0  0  0  0  0999 V2000
   13.3580  -11.4870  -15.0770 N   0  3  0  0  0
   12.9390  -12.7320  -14.4230 C   0  0  0  0  0
   13.4450  -12.8540  -12.9940 C   0  0  0  0  0
   14.4460  -12.2550  -12.6170 O   0  0  0  0  0
   13.4040  -13.9400  -15.2330 C   0  0  0  0  0
   12.7290  -13.6470  -12.2110 N   0  0  0  0  0
   13.0970  -13.9080  -10.8400 C   0  0  0  0  0
   14.1270  -15.0050  -10.7670 C   0  0  0  0  0
   13.9720  -16.0400  -11.4110 O   0  0  0  0  0
   11.8770  -14.3780  -10.0660 C   0  0  0  0  0
   10.7320  -13.4220  -10.1290 C   0  0  0  0  0
   10.5370  -12.4520   -9.1690 N   0  0  0  0  0
    9.7430  -13.2560  -11.0440 C   0  0  0  0  0
    9.4600  -11.7470   -9.4750 C   0  0  0  0  0
    8.9680  -12.2070  -10.6120 N   0  0  0  0  0
   15.1750  -14.8020   -9.9800 N   0  0  0  0  0
   16.0990  -15.8960   -9.6790 C   0  0  0  0  0
   17.5370  -15.5550  -10.0940 C   0  0  0  0  0
   17.9530  -14.3830   -9.4130 O   0  0  0  0  0
   15.9850  -16.3030   -8.2050 C   0  0  0  0  0
   15.2190  -15.7390   -7.4400 O   0  0  0  0  0
   19.3920  -13.7820   -9.7640 P   0  0  0  0  0
   19.3840  -13.4400  -11.2850 O   0  0  0  0  0
   19.5310  -12.5230   -8.8710 O   0  0  0  0  0
   20.4350  -14.8730   -9.4500 O   0  0  0  0  0
   16.7310  -17.3150   -7.8080 N   0  0  0  0  0
   16.5200  -17.8970   -6.4920 C   0  0  0  0  0
   16.9660  -16.9650   -5.3720 C   0  0  0  0  0
   17.9000  -16.1830   -5.5280 O   0  0  0  0  0
   17.2910  -19.2030   -6.3720 C   0  0  0  0  0
   18.6440  -18.9400   -6.0670 O   0  0  0  0  0
   16.3300  -17.0710   -4.2130 N   0  0  0  0  0
   16.9170  -16.4420   -3.0310 C   0  0  0  0  0
   18.2830  -17.0460   -2.7510 C   0  0  0  0  0
   18.6140  -18.1530   -3.1830 O   0  0  0  0  0
   15.9360  -16.7690   -1.9000 C   0  0  0  0  0
   15.0160  -17.7550   -2.4090 C   0  0  0  0  0
   15.0760  -17.7820   -3.9080 C   0  0  0  0  0
   19.0950  -16.2950   -2.0140 N   0  0  0  0  0
   20.4310  -16.7710   -1.6640 C   0  0  0  0  0
   20.3810  -17.8900   -0.6370 C   0  0  0  0  0
   21.1100  -18.8820   -0.7450 O   0  0  0  0  0
   21.2390  -15.6010   -1.1280 C   0  0  0  0  0
   19.5360  -17.7520    0.3610 N   0  0  0  0  0
   19.4700  -18.7120    1.4470 C   0  0  0  0  0
   18.4730  -19.8120    1.0990 C   0  0  0  0  0
   17.3200  -19.5550    0.7350 O   0  0  0  0  0
   19.0440  -17.9820    2.7220 C   0  0  0  0  0
   19.1770  -18.8170    3.8540 O   0  0  0  0  0
   16.2920  -24.1360    1.3690 O   0  0  0  0  0
   17.4050  -24.3080    1.9210 C   0  0  0  0  0
   18.4530  -23.3230    1.7800 C   0  0  0  0  0
   18.1930  -22.2860    0.6610 C   0  0  0  0  0
   19.0170  -21.1290    1.0440 N   0  0  0  0  0
   18.6770  -22.7800   -0.7350 C   0  0  0  0  0
   18.4250  -21.7620   -1.8580 C   0  0  0  0  0
   16.9230  -21.5870   -2.2120 C   0  0  0  0  0
   19.2220  -22.1370   -3.1390 C   0  0  0  0  0
   17.8770  -25.5250    2.1370 N   0  0  0  0  0
   16.9920  -26.6360    1.8440 C   0  0  0  0  0
   16.0930  -26.8590    3.0490 C   0  0  0  0  0
   15.1190  -27.6120    2.9840 O   0  0  0  0  0
   17.7810  -27.8920    1.5150 C   0  0  0  0  0
   18.7390  -28.3330    2.6010 C   0  0  0  0  0
   19.1080  -29.7960    2.4650 C   0  0  0  0  0
   18.9490  -30.3830    1.3910 O   0  0  0  0  0
   19.6040  -30.4000    3.5580 N   0  0  0  0  0
   16.3430  -26.2740    4.1100 O   0  0  0  0  0
   13.0403  -10.6906  -14.5246 H   0  0  0  0  0
   14.3753  -11.4680  -15.1494 H   0  0  0  0  0
   12.9486  -11.4400  -16.0101 H   0  0  0  0  0
   11.8502  -12.7050  -14.3799 H   0  0  0  0  0
   14.4934  -13.9772  -15.2347 H   0  0  0  0  0
   13.0088  -14.8511  -14.7837 H   0  0  0  0  0
   13.0406  -13.8511  -16.2568 H   0  0  0  0  0
   11.8904  -14.0875  -12.5892 H   0  0  0  0  0
   13.4994  -12.9869  -10.4185 H   0  0  0  0  0
   12.1680  -14.4744   -9.0200 H   0  0  0  0  0
   11.5467  -15.3167  -10.5107 H   0  0  0  0  0
    9.5923  -13.8435  -11.9497 H   0  0  0  0  0
    9.0482  -10.9257   -8.8885 H   0  0  0  0  0
   15.3380  -13.8772   -9.5819 H   0  0  0  0  0
   15.8148  -16.7626  -10.2760 H   0  0  0  0  0
   17.5771  -15.3866  -11.1702 H   0  0  0  0  0
   18.1982  -16.3823   -9.8360 H   0  0  0  0  0
   18.7282  -12.7599  -11.4555 H   0  0  0  0  0
   18.8571  -11.8839   -9.1138 H   0  0  0  0  0
   17.4544  -17.6888   -8.4223 H   0  0  0  0  0
   15.4489  -18.0709   -6.3888 H   0  0  0  0  0
   17.2352  -19.7402   -7.3188 H   0  0  0  0  0
   16.8545  -19.8046   -5.5747 H   0  0  0  0  0
   19.1214  -19.7696   -5.9935 H   0  0  0  0  0
   17.0642  -15.3684   -3.1483 H   0  0  0  0  0
   15.4028  -15.8731   -1.5821 H   0  0  0  0  0
   16.4672  -17.1519   -1.0286 H   0  0  0  0  0
   14.0042  -17.4999   -2.0938 H   0  0  0  0  0
   15.2885  -18.7361   -2.0201 H   0  0  0  0  0
   15.0613  -18.7954   -4.3092 H   0  0  0  0  0
   14.2067  -17.3142   -4.3701 H   0  0  0  0  0
   18.7830  -15.3794   -1.6904 H   0  0  0  0  0
   20.9023  -17.1785   -2.5584 H   0  0  0  0  0
   21.3090  -14.8283   -1.8936 H   0  0  0  0  0
   20.7462  -15.1952   -0.2445 H   0  0  0  0  0
   22.2393  -15.9431   -0.8628 H   0  0  0  0  0
   18.9092  -16.9474    0.3720 H   0  0  0  0  0
   20.4458  -19.1713    1.6046 H   0  0  0  0  0
   17.9983  -17.6903    2.6244 H   0  0  0  0  0
   19.6835  -17.1094    2.8549 H   0  0  0  0  0
   18.9039  -18.3362    4.6388 H   0  0  0  0  0
   19.3671  -23.8572    1.5207 H   0  0  0  0  0
   18.5125  -22.7762    2.7211 H   0  0  0  0  0
   17.1264  -22.0799    0.5713 H   0  0  0  0  0
   20.0000  -21.2721    1.2755 H   0  0  0  0  0
   18.1185  -23.6842   -0.9773 H   0  0  0  0  0
   19.7529  -22.9436   -0.6728 H   0  0  0  0  0
   18.7761  -20.8058   -1.4699 H   0  0  0  0  0
   16.5146  -22.5428   -2.5402 H   0  0  0  0  0
   16.3812  -21.2422   -1.3313 H   0  0  0  0  0
   16.8227  -20.8536   -3.0121 H   0  0  0  0  0
   20.2879  -22.1505   -2.9113 H   0  0  0  0  0
   18.9103  -23.1230   -3.4837 H   0  0  0  0  0
   19.0247  -21.3995   -3.9170 H   0  0  0  0  0
   18.8208  -25.6751    2.4935 H   0  0  0  0  0
   16.3866  -26.4026    0.9682 H   0  0  0  0  0
   18.3798  -27.6706    0.6315 H   0  0  0  0  0
   17.0584  -28.6969    1.3805 H   0  0  0  0  0
   18.2524  -28.1905    3.5659 H   0  0  0  0  0
   19.6499  -27.7404    2.5159 H   0  0  0  0  0
   19.8670  -31.3848    3.5214 H   0  0  0  0  0
   19.7175  -29.8737    4.4243 H   0  0  0  0  0
   17.1262  -25.7303    3.9975 H   0  0  0  0  0
  2  1  1  0  0  0
  3  2  1  0  0  0
  2  5  1  0  0  0
  3  4  2  0  0  0
  6  3  1  0  0  0
  7  6  1  0  0  0
  8  7  1  0  0  0
  7 10  1  0  0  0
  8  9  2  0  0  0
 16  8  1  0  0  0
 10 11  1  0  0  0
 11 12  4  0  0  0
 11 13  4  0  0  0
 12 14  4  0  0  0
 13 15  4  0  0  0
 15 14  4  0  0  0
 17 16  1  0  0  0
 17 18  1  0  0  0
 20 17  1  0  0  0
 18 19  1  0  0  0
 19 22  1  0  0  0
 20 21  2  0  0  0
 26 20  1  0  0  0
 22 23  1  0  0  0
 22 24  1  0  0  0
 22 25  2  0  0  0
 27 26  1  0  0  0
 28 27  1  0  0  0
 27 30  1  0  0  0
 28 29  2  0  0  0
 32 28  1  0  0  0
 30 31  1  0  0  0
 33 32  1  0  0  0
 32 38  1  0  0  0
 34 33  1  0  0  0
 33 36  1  0  0  0
 34 35  2  0  0  0
 39 34  1  0  0  0
 36 37  1  0  0  0
 37 38  1  0  0  0
 40 39  1  0  0  0
 41 40  1  0  0  0
 40 43  1  0  0  0
 41 42  2  0  0  0
 44 41  1  0  0  0
 45 44  1  0  0  0
 46 45  1  0  0  0
 45 48  1  0  0  0
 46 47  2  0  0  0
 54 46  1  0  0  0
 48 49  1  0  0  0
 51 50  2  0  0  0
 52 51  1  0  0  0
 51 59  1  0  0  0
 53 52  1  0  0  0
 53 54  1  0  0  0
 53 55  1  0  0  0
 55 56  1  0  0  0
 56 57  1  0  0  0
 56 58  1  0  0  0
 59 60  1  0  0  0
 60 61  1  0  0  0
 60 63  1  0  0  0
 61 62  2  0  0  0
 61 68  1  0  0  0
 63 64  1  0  0  0
 64 65  1  0  0  0
 65 66  2  0  0  0
 65 67  1  0  0  0
  1 69  1  0  0  0
  1 70  1  0  0  0
  1 71  1  0  0  0
  2 72  1  0  0  0
  5 73  1  0  0  0
  5 74  1  0  0  0
  5 75  1  0  0  0
  6 76  1  0  0  0
  7 77  1  0  0  0
 10 78  1  0  0  0
 10 79  1  0  0  0
 13 80  1  0  0  0
 14 81  1  0  0  0
 16 82  1  0  0  0
 17 83  1  0  0  0
 18 84  1  0  0  0
 18 85  1  0  0  0
 23 86  1  0  0  0
 24 87  1  0  0  0
 26 88  1  0  0  0
 27 89  1  0  0  0
 30 90  1  0  0  0
 30 91  1  0  0  0
 31 92  1  0  0  0
 33 93  1  0  0  0
 36 94  1  0  0  0
 36 95  1  0  0  0
 37 96  1  0  0  0
 37 97  1  0  0  0
 38 98  1  0  0  0
 38 99  1  0  0  0
 39100  1  0  0  0
 40101  1  0  0  0
 43102  1  0  0  0
 43103  1  0  0  0
 43104  1  0  0  0
 44105  1  0  0  0
 45106  1  0  0  0
 48107  1  0  0  0
 48108  1  0  0  0
 49109  1  0  0  0
 52110  1  0  0  0
 52111  1  0  0  0
 53112  1  0  0  0
 54113  1  0  0  0
 55114  1  0  0  0
 55115  1  0  0  0
 56116  1  0  0  0
 57117  1  0  0  0
 57118  1  0  0  0
 57119  1  0  0  0
 58120  1  0  0  0
 58121  1  0  0  0
 58122  1  0  0  0
 59123  1  0  0  0
 60124  1  0  0  0
 63125  1  0  0  0
 63126  1  0  0  0
 64127  1  0  0  0
 64128  1  0  0  0
 67129  1  0  0  0
 67130  1  0  0  0
 68131  1  0  0  0
M  END
$$$$
