6h4d_ligand
  -I-interpret- 

 42 44  0  0  0  0  0  0  0  0999 V2000
  -15.3730   -3.7420    5.3920 P   0  0  0  0  0
  -14.3980   -4.6440    4.6680 O   0  0  0  0  0
  -16.7400   -3.7710    4.7390 O   0  0  0  0  0
  -15.5190   -4.1850    6.8290 O   0  0  0  0  0
  -14.8430   -2.2260    5.3930 O   0  0  0  0  0
  -13.7110   -1.6830    4.3870 P   0  0  0  0  0
  -14.1410   -1.8400    2.9440 O   0  0  0  0  0
  -12.3730   -2.3240    4.6330 O   0  0  0  0  0
  -13.6830   -0.1430    4.8200 O   0  0  0  0  0
  -14.8870    0.6110    4.7520 C   0  0  0  0  0
  -14.5260    2.0660    4.9460 C   0  0  0  0  0
  -13.8750    2.2210    6.2050 O   0  0  0  0  0
  -13.5270    2.4730    3.8800 C   0  0  0  0  0
  -14.0220    3.6180    3.1910 O   0  0  0  0  0
  -12.2440    2.8070    4.6120 C   0  0  0  0  0
  -11.6170    3.9790    4.0950 O   0  0  0  0  0
  -12.7120    3.0360    6.0340 C   0  0  0  0  0
  -11.6540    2.7520    7.0310 N   0  0  0  0  0
  -10.9950    1.6040    7.2670 C   0  0  0  0  0
  -10.1070    1.7680    8.2920 N   0  0  0  0  0
  -10.2020    3.0330    8.7220 C   0  0  0  0  0
   -9.5650    3.8740    9.7510 C   0  0  0  0  0
   -8.6820    3.4200   10.5040 O   0  0  0  0  0
   -9.9750    5.1480    9.8430 N   0  0  0  0  0
  -10.9290    5.6700    9.0470 C   0  0  0  0  0
  -11.2930    6.9630    9.2020 N   0  0  0  0  0
  -11.5480    4.9510    8.0850 N   0  0  0  0  0
  -11.2240    3.6640    7.8840 C   0  0  0  0  0
  -14.3122   -4.3546    3.7567 H   0  0  0  0  0
  -16.6623   -3.4913    3.8239 H   0  0  0  0  0
  -14.9960   -1.4219    2.8188 H   0  0  0  0  0
  -15.5838    0.2856    5.5245 H   0  0  0  0  0
  -15.3733    0.4650    3.7875 H   0  0  0  0  0
  -15.4313    2.6707    4.8925 H   0  0  0  0  0
  -13.3611    1.6841    3.1463 H   0  0  0  0  0
  -13.3930    3.8799    2.5147 H   0  0  0  0  0
  -11.4953    2.0208    4.5147 H   0  0  0  0  0
  -10.8108    4.1525    4.5865 H   0  0  0  0  0
  -12.9537    4.0855    6.2022 H   0  0  0  0  0
  -11.1476    0.6746    6.7184 H   0  0  0  0  0
  -10.8463    7.5363    9.9177 H   0  0  0  0  0
  -12.2660    5.3889    7.5079 H   0  0  0  0  0
  1  2  1  0  0  0
  1  3  1  0  0  0
  1  4  2  0  0  0
  1  5  1  0  0  0
  5  6  1  0  0  0
  6  7  1  0  0  0
  6  8  2  0  0  0
  6  9  1  0  0  0
  9 10  1  0  0  0
 10 11  1  0  0  0
 11 12  1  0  0  0
 11 13  1  0  0  0
 12 17  1  0  0  0
 13 14  1  0  0  0
 13 15  1  0  0  0
 15 16  1  0  0  0
 15 17  1  0  0  0
 17 18  1  0  0  0
 18 19  4  0  0  0
 18 28  4  0  0  0
 19 20  4  0  0  0
 20 21  4  0  0  0
 21 22  1  0  0  0
 21 28  4  0  0  0
 22 23  2  0  0  0
 22 24  1  0  0  0
 24 25  4  0  0  0
 25 26  2  0  0  0
 25 27  1  0  0  0
 27 28  1  0  0  0
  2 29  1  0  0  0
  3 30  1  0  0  0
  7 31  1  0  0  0
 10 32  1  0  0  0
 10 33  1  0  0  0
 11 34  1  0  0  0
 13 35  1  0  0  0
 14 36  1  0  0  0
 15 37  1  0  0  0
 16 38  1  0  0  0
 17 39  1  0  0  0
 19 40  1  0  0  0
 26 41  1  0  0  0
 27 42  1  0  0  0
M  END
$$$$
