6hgs_ligand
  -I-interpret- 

 37 39  0  0  0  0  0  0  0  0999 V2000
   31.5740   11.5400    6.1420 P   0  0  0  0  0
   30.2210   11.9520    5.5640 O   0  0  0  0  0
   31.5720   11.3350    7.6360 O   0  0  0  0  0
   32.7350   12.4030    5.6670 O   0  0  0  0  0
   31.9040   10.1190    5.4750 O   0  0  0  0  0
   31.3670    8.9170    6.0120 C   0  0  0  0  0
   30.4750    8.2900    4.9690 C   0  0  0  0  0
   31.2140    7.9880    3.7720 O   0  0  0  0  0
   29.9620    6.9920    5.5080 C   0  0  0  0  0
   28.6410    6.7610    5.0010 O   0  0  0  0  0
   30.9490    5.9610    4.9960 C   0  0  0  0  0
   30.2320    4.8030    4.5420 O   0  0  0  0  0
   31.6870    6.6400    3.8430 C   0  0  0  0  0
   33.1610    6.6460    4.0030 N   0  0  0  0  0
   34.0040    7.7020    3.8720 C   0  0  0  0  0
   35.2960    7.3080    4.0520 N   0  0  0  0  0
   35.2740    5.9670    4.2640 C   0  0  0  0  0
   36.2740    4.9230    4.5180 C   0  0  0  0  0
   37.5040    5.1890    4.5850 O   0  0  0  0  0
   35.8180    3.6730    4.7000 N   0  0  0  0  0
   34.4950    3.3620    4.6700 C   0  0  0  0  0
   34.1340    2.0640    4.8710 N   0  0  0  0  0
   33.5240    4.2730    4.4240 N   0  0  0  0  0
   33.9480    5.5700    4.2470 C   0  0  0  0  0
   30.3007   12.0631    4.6138 H   0  0  0  0  0
   32.6895   12.5018    4.7132 H   0  0  0  0  0
   30.7937    9.1333    6.9135 H   0  0  0  0  0
   32.1730    8.2322    6.2757 H   0  0  0  0  0
   29.6709    8.9885    4.7373 H   0  0  0  0  0
   29.8872    6.9646    6.5951 H   0  0  0  0  0
   28.3085    5.9287    5.3449 H   0  0  0  0  0
   31.6478    5.6284    5.7636 H   0  0  0  0  0
   30.8553    4.1490    4.2174 H   0  0  0  0  0
   31.4846    6.0771    2.9318 H   0  0  0  0  0
   33.6910    8.7229    3.6533 H   0  0  0  0  0
   34.8488    1.3559    5.0383 H   0  0  0  0  0
   32.5388    4.0138    4.3730 H   0  0  0  0  0
  1  2  1  0  0  0
  1  3  2  0  0  0
  1  4  1  0  0  0
  1  5  1  0  0  0
  5  6  1  0  0  0
  6  7  1  0  0  0
  7  8  1  0  0  0
  7  9  1  0  0  0
  8 13  1  0  0  0
  9 10  1  0  0  0
  9 11  1  0  0  0
 11 12  1  0  0  0
 11 13  1  0  0  0
 13 14  1  0  0  0
 14 15  4  0  0  0
 14 24  4  0  0  0
 15 16  4  0  0  0
 16 17  4  0  0  0
 17 18  1  0  0  0
 17 24  4  0  0  0
 18 19  2  0  0  0
 18 20  1  0  0  0
 20 21  4  0  0  0
 21 22  2  0  0  0
 21 23  1  0  0  0
 23 24  1  0  0  0
  2 25  1  0  0  0
  4 26  1  0  0  0
  6 27  1  0  0  0
  6 28  1  0  0  0
  7 29  1  0  0  0
  9 30  1  0  0  0
 10 31  1  0  0  0
 11 32  1  0  0  0
 12 33  1  0  0  0
 13 34  1  0  0  0
 15 35  1  0  0  0
 22 36  1  0  0  0
 23 37  1  0  0  0
M  END
$$$$
