6i1r_ligand
  -I-interpret- 

 34 35  0  0  0  0  0  0  0  0999 V2000
  -26.2000  -24.7660    9.1750 O   0  0  0  0  0
  -25.3610  -25.8360    8.5190 P   0  0  0  0  0
  -23.8720  -25.6510    8.6880 O   0  0  0  0  0
  -25.8460  -27.2450    8.7620 O   0  0  0  0  0
  -25.6040  -25.6070    6.9430 O   0  0  0  0  0
  -26.1920  -26.6320    6.1440 C   0  0  0  0  0
  -25.3100  -26.8970    4.9300 C   0  0  0  0  0
  -24.2770  -27.8240    5.2770 O   0  0  0  0  0
  -26.1110  -27.4950    3.7840 C   0  0  0  0  0
  -26.1110  -26.5930    2.6700 O   0  0  0  0  0
  -25.4560  -28.8320    3.4620 C   0  0  0  0  0
  -24.9760  -28.9040    2.1120 O   0  0  0  0  0
  -24.2890  -28.9750    4.4280 C   0  0  0  0  0
  -24.4600  -30.1880    5.2320 N   0  0  0  0  0
  -24.3310  -31.4550    4.6270 C   0  0  0  0  0
  -24.4870  -32.5780    5.3620 N   0  0  0  0  0
  -24.7670  -32.4970    6.6800 C   0  0  0  0  0
  -24.8960  -31.2540    7.2890 C   0  0  0  0  0
  -24.7370  -30.0970    6.5370 C   0  0  0  0  0
  -24.0730  -31.5400    3.4070 O   0  0  0  0  0
  -24.9210  -33.6280    7.4100 N   0  0  0  0  0
  -23.4095  -26.3667    8.2459 H   0  0  0  0  0
  -25.2640  -27.8641    8.3152 H   0  0  0  0  0
  -27.1803  -26.3131    5.8129 H   0  0  0  0  0
  -26.2839  -27.5446    6.7330 H   0  0  0  0  0
  -24.8879  -25.9425    4.6156 H   0  0  0  0  0
  -27.1583  -27.6535    4.0412 H   0  0  0  0  0
  -26.6178  -26.9755    1.9500 H   0  0  0  0  0
  -26.1887  -29.6324    3.5654 H   0  0  0  0  0
  -24.5742  -29.7628    1.9618 H   0  0  0  0  0
  -23.3483  -29.0512    3.8826 H   0  0  0  0  0
  -25.1212  -31.1875    8.3534 H   0  0  0  0  0
  -24.8376  -29.1194    7.0085 H   0  0  0  0  0
  -24.8253  -34.5401    6.9636 H   0  0  0  0  0
  1  2  2  0  0  0
  2  3  1  0  0  0
  2  4  1  0  0  0
  2  5  1  0  0  0
  5  6  1  0  0  0
  6  7  1  0  0  0
  7  8  1  0  0  0
  7  9  1  0  0  0
  8 13  1  0  0  0
  9 10  1  0  0  0
  9 11  1  0  0  0
 11 12  1  0  0  0
 11 13  1  0  0  0
 13 14  1  0  0  0
 14 15  1  0  0  0
 14 19  1  0  0  0
 15 16  1  0  0  0
 15 20  2  0  0  0
 16 17  4  0  0  0
 17 18  1  0  0  0
 17 21  2  0  0  0
 18 19  2  0  0  0
  3 22  1  0  0  0
  4 23  1  0  0  0
  6 24  1  0  0  0
  6 25  1  0  0  0
  7 26  1  0  0  0
  9 27  1  0  0  0
 10 28  1  0  0  0
 11 29  1  0  0  0
 12 30  1  0  0  0
 13 31  1  0  0  0
 18 32  1  0  0  0
 19 33  1  0  0  0
 21 34  1  0  0  0
M  END
$$$$
