6i5j_ligand
  -I-interpret- 

183186  0  0  0  0  0  0  0  0999 V2000
   71.4650  -10.8040   38.3980 N   0  3  0  0  0
   71.1840   -9.4180   38.0150 C   0  0  0  0  0
   69.7800   -9.2370   37.4420 C   0  0  0  0  0
   69.1650  -10.2010   36.9860 O   0  0  0  0  0
   72.2550   -9.1200   36.9550 C   0  0  0  0  0
   73.2290  -10.2970   36.9920 C   0  0  0  0  0
   72.8760  -11.1470   38.1720 C   0  0  0  0  0
   69.2870   -8.0020   37.4690 N   0  0  0  0  0
   67.9330   -7.6780   37.0280 C   0  0  0  0  0
   67.9030   -7.6090   35.5040 C   0  0  0  0  0
   68.9090   -7.2340   34.8820 O   0  0  0  0  0
   67.4510   -6.3640   37.6700 C   0  0  0  0  0
   68.0870   -5.1560   36.9920 C   0  0  0  0  0
   65.9300   -6.2640   37.6480 C   0  0  0  0  0
   66.8070   -8.0010   34.8590 N   0  0  0  0  0
   66.6810   -7.7690   33.4170 C   0  0  0  0  0
   66.5890   -6.2830   33.1030 C   0  0  0  0  0
   66.2430   -5.4560   33.9500 O   0  0  0  0  0
   65.3830   -8.4960   33.0480 C   0  0  0  0  0
   65.2030   -9.5160   34.1200 C   0  0  0  0  0
   65.7470   -8.8890   35.3680 C   0  0  0  0  0
   66.9030   -5.9530   31.8550 N   0  0  0  0  0
   66.9270   -4.5620   31.4140 C   0  0  0  0  0
   65.5300   -3.9460   31.4090 C   0  0  0  0  0
   65.3710   -2.7550   31.6720 O   0  0  0  0  0
   67.5570   -4.4540   30.0240 C   0  0  0  0  0
   69.0690   -4.5630   30.0620 C   0  0  0  0  0
   69.6750   -4.0890   31.0470 O   0  0  0  0  0
   69.6530   -5.1240   29.1110 O   0  0  0  0  0
   64.5220   -4.7590   31.1120 N   0  0  0  0  0
   63.1390   -4.2940   31.1340 C   0  0  0  0  0
   62.2470   -5.2400   31.9250 C   0  0  0  0  0
   62.2530   -6.4510   31.7060 O   0  0  0  0  0
   62.6000   -4.1230   29.7120 C   0  0  0  0  0
   62.9240   -2.7740   29.1160 C   0  0  0  0  0
   62.0630   -1.6980   29.2830 C   0  0  0  0  0
   64.0960   -2.5720   28.4010 C   0  0  0  0  0
   62.3560   -0.4590   28.7460 C   0  0  0  0  0
   64.3990   -1.3360   27.8610 C   0  0  0  0  0
   63.5240   -0.2850   28.0350 C   0  0  0  0  0
   63.8030    0.8810   27.5350 O   0  0  0  0  0
   63.0360    1.4180   26.2270 P   0  0  0  0  0
   63.0620    0.3440   25.1240 O   0  0  0  0  0
   61.6360    1.7270   26.5940 O   0  0  0  0  0
   63.7320    2.6990   25.7320 O   0  0  0  0  0
   61.4830   -4.6740   32.8530 N   0  0  0  0  0
   60.6000   -5.4600   33.7050 C   0  0  0  0  0
   59.2250   -4.8120   33.8330 C   0  0  0  0  0
   59.0500   -3.6380   33.5100 O   0  0  0  0  0
   61.1930   -5.6430   35.1170 C   0  0  0  0  0
   61.5770   -4.3680   35.6460 O   0  0  0  0  0
   62.4060   -6.5600   35.0790 C   0  0  0  0  0
   58.2550   -5.5890   34.3060 N   0  0  0  0  0
   56.9190   -5.1010   34.6030 C   0  0  0  0  0
   56.5790   -5.4170   36.0540 C   0  0  0  0  0
   57.1490   -6.3250   36.6630 O   0  0  0  0  0
   55.8750   -5.7190   33.6640 C   0  0  0  0  0
   56.1150   -7.1010   33.4700 O   0  0  0  0  0
   55.6410   -4.6530   36.6080 N   0  0  0  0  0
   55.3360   -4.7730   38.0270 C   0  0  0  0  0
   54.3460   -5.9100   38.2580 C   0  0  0  0  0
   53.6200   -6.3410   37.3580 O   0  0  0  0  0
   54.8050   -3.4460   38.5980 C   0  0  0  0  0
   53.4010   -3.1610   38.0690 C   0  0  0  0  0
   55.7470   -2.3100   38.2540 C   0  0  0  0  0
   52.7040   -2.0440   38.8000 C   0  0  0  0  0
   54.3290   -6.4040   39.4960 N   0  0  0  0  0
   53.4050   -7.4580   39.9100 C   0  0  0  0  0
   53.0410   -7.1950   41.3640 C   0  0  0  0  0
   53.8860   -7.3400   42.2530 O   0  0  0  0  0
   54.0270   -8.8420   39.7330 C   0  0  0  0  0
   53.1840   -9.9610   40.2640 C   0  0  0  0  0
   51.8370   -9.8260   40.5230 N   0  0  0  0  0
   53.5010  -11.2390   40.5810 C   0  0  0  0  0
   51.3620  -10.9710   40.9800 C   0  0  0  0  0
   52.3510  -11.8450   41.0240 N   0  0  0  0  0
   51.7910   -6.8120   41.6020 N   0  0  0  0  0
   51.3370   -6.4500   42.9380 C   0  0  0  0  0
   50.7060   -7.6480   43.6400 C   0  0  0  0  0
   49.7960   -8.2820   43.1070 O   0  0  0  0  0
   50.3510   -5.2700   42.8720 C   0  0  0  0  0
   51.0820   -3.9860   42.4740 C   0  0  0  0  0
   49.6300   -5.0960   44.1960 C   0  0  0  0  0
   50.1620   -2.8110   42.2360 C   0  0  0  0  0
   51.1920   -7.9520   44.8400 N   0  0  0  0  0
   51.5300   -8.9520   45.8480 C   0  0  0  0  0
   51.3060   -8.3920   47.2550 C   0  0  0  0  0
   51.7280   -7.2710   47.5490 O   0  0  0  0  0
   53.0060   -9.3940   45.6390 C   0  0  0  0  0
   53.1170  -10.1550   44.3260 C   0  0  0  0  0
   53.4610  -10.2700   46.7980 C   0  0  0  0  0
   50.6480   -9.1640   48.1060 N   0  0  0  0  0
   70.8863  -11.4212   37.8283 H   0  0  0  0  0
   71.2600  -10.9136   39.3912 H   0  0  0  0  0
   71.2163   -8.7437   38.8708 H   0  0  0  0  0
   72.7656   -8.1802   37.1651 H   0  0  0  0  0
   71.8097   -9.0089   35.9663 H   0  0  0  0  0
   74.2541   -9.9369   37.0786 H   0  0  0  0  0
   73.1557  -10.8775   36.0724 H   0  0  0  0  0
   73.0346  -12.2109   37.9956 H   0  0  0  0  0
   73.5068  -10.9567   39.0403 H   0  0  0  0  0
   69.8811   -7.2476   37.8130 H   0  0  0  0  0
   67.2460   -8.4600   37.3514 H   0  0  0  0  0
   67.7693   -6.3697   38.7125 H   0  0  0  0  0
   69.1710   -5.2151   37.0895 H   0  0  0  0  0
   67.8157   -5.1488   35.9363 H   0  0  0  0  0
   67.7274   -4.2432   37.4670 H   0  0  0  0  0
   65.5799   -6.2961   36.6162 H   0  0  0  0  0
   65.5042   -7.0995   38.2037 H   0  0  0  0  0
   65.6222   -5.3252   38.1084 H   0  0  0  0  0
   67.5421   -8.1297   32.8545 H   0  0  0  0  0
   65.4386   -8.9508   32.0590 H   0  0  0  0  0
   64.5360   -7.8123   32.9907 H   0  0  0  0  0
   65.7240  -10.4428   33.8798 H   0  0  0  0  0
   64.1547   -9.7910   34.2365 H   0  0  0  0  0
   64.9867   -8.3551   35.9381 H   0  0  0  0  0
   66.1188   -9.6239   36.0820 H   0  0  0  0  0
   67.1330   -6.6901   31.1885 H   0  0  0  0  0
   67.5338   -4.0026   32.1259 H   0  0  0  0  0
   67.3003   -3.4775   29.6133 H   0  0  0  0  0
   67.1757   -5.2752   29.4171 H   0  0  0  0  0
   69.0408   -3.7060   31.6575 H   0  0  0  0  0
   64.7190   -5.7284   30.8634 H   0  0  0  0  0
   63.1280   -3.3240   31.6311 H   0  0  0  0  0
   61.5147   -4.2148   29.7552 H   0  0  0  0  0
   63.0675   -4.8832   29.0862 H   0  0  0  0  0
   61.1402   -1.8328   29.8473 H   0  0  0  0  0
   64.7892   -3.4017   28.2628 H   0  0  0  0  0
   61.6681    0.3752   28.8837 H   0  0  0  0  0
   65.3235   -1.1934   27.3014 H   0  0  0  0  0
   63.9725    0.1484   24.8908 H   0  0  0  0  0
   64.6399    2.4971   25.4943 H   0  0  0  0  0
   61.5154   -3.6615   32.9723 H   0  0  0  0  0
   60.4974   -6.4343   33.2272 H   0  0  0  0  0
   60.4333   -6.0955   35.7543 H   0  0  0  0  0
   61.9456   -4.4852   36.5246 H   0  0  0  0  0
   62.1106   -7.5353   34.6923 H   0  0  0  0  0
   63.1676   -6.1263   34.4310 H   0  0  0  0  0
   62.8060   -6.6732   36.0866 H   0  0  0  0  0
   58.4587   -6.5752   34.4682 H   0  0  0  0  0
   56.9010   -4.0222   34.4480 H   0  0  0  0  0
   55.9348   -5.2166   32.6985 H   0  0  0  0  0
   54.8887   -5.5967   34.1117 H   0  0  0  0  0
   55.4486   -7.4606   32.8800 H   0  0  0  0  0
   55.1325   -3.9792   36.0354 H   0  0  0  0  0
   56.2585   -5.0071   38.5583 H   0  0  0  0  0
   54.7506   -3.5312   39.6833 H   0  0  0  0  0
   52.8076   -4.0650   38.2062 H   0  0  0  0  0
   53.4968   -2.8621   37.0252 H   0  0  0  0  0
   56.7297   -2.5130   38.6797 H   0  0  0  0  0
   55.8297   -2.2237   37.1706 H   0  0  0  0  0
   55.3568   -1.3790   38.6651 H   0  0  0  0  0
   52.6116   -2.3037   39.8546 H   0  0  0  0  0
   53.2854   -1.1275   38.6998 H   0  0  0  0  0
   51.7123   -1.8952   38.3729 H   0  0  0  0  0
   54.9866   -6.0318   40.1812 H   0  0  0  0  0
   52.5101   -7.4446   39.2878 H   0  0  0  0  0
   54.9634   -8.8496   40.2909 H   0  0  0  0  0
   54.1477   -9.0079   38.6625 H   0  0  0  0  0
   54.4852  -11.7004   40.4997 H   0  0  0  0  0
   50.3291  -11.1619   41.2713 H   0  0  0  0  0
   51.1299   -6.7703   40.8264 H   0  0  0  0  0
   52.2035   -6.1381   43.5211 H   0  0  0  0  0
   49.6028   -5.4877   42.1098 H   0  0  0  0  0
   51.6043   -4.1854   41.5383 H   0  0  0  0  0
   51.7440   -3.7195   43.2979 H   0  0  0  0  0
   49.0759   -6.0053   44.4287 H   0  0  0  0  0
   50.3592   -4.9020   44.9826 H   0  0  0  0  0
   48.9389   -4.2562   44.1243 H   0  0  0  0  0
   49.4675   -3.0521   41.4312 H   0  0  0  0  0
   49.6038   -2.5977   43.1476 H   0  0  0  0  0
   50.7534   -1.9386   41.9581 H   0  0  0  0  0
   51.4542   -7.0577   45.2547 H   0  0  0  0  0
   50.8818   -9.8218   45.7413 H   0  0  0  0  0
   53.6482   -8.5140   45.6025 H   0  0  0  0  0
   52.4722  -11.0331   44.3608 H   0  0  0  0  0
   52.8078   -9.5079   43.5052 H   0  0  0  0  0
   54.1503  -10.4672   44.1747 H   0  0  0  0  0
   53.3844   -9.7077   47.7286 H   0  0  0  0  0
   52.8271  -11.1550   46.8535 H   0  0  0  0  0
   54.4961  -10.5723   46.6388 H   0  0  0  0  0
   50.4689   -8.8388   49.0560 H   0  0  0  0  0
   50.3202  -10.0839   47.8115 H   0  0  0  0  0
  1  2  1  0  0  0
  1  7  1  0  0  0
  2  3  1  0  0  0
  2  5  1  0  0  0
  3  4  2  0  0  0
  3  8  1  0  0  0
  5  6  1  0  0  0
  6  7  1  0  0  0
  8  9  1  0  0  0
  9 10  1  0  0  0
  9 12  1  0  0  0
 10 11  2  0  0  0
 10 15  1  0  0  0
 12 13  1  0  0  0
 12 14  1  0  0  0
 15 16  1  0  0  0
 15 21  1  0  0  0
 16 17  1  0  0  0
 16 19  1  0  0  0
 17 18  2  0  0  0
 17 22  1  0  0  0
 19 20  1  0  0  0
 20 21  1  0  0  0
 22 23  1  0  0  0
 23 24  1  0  0  0
 23 26  1  0  0  0
 24 25  2  0  0  0
 24 30  1  0  0  0
 26 27  1  0  0  0
 27 28  1  0  0  0
 27 29  2  0  0  0
 30 31  1  0  0  0
 31 32  1  0  0  0
 31 34  1  0  0  0
 32 33  2  0  0  0
 32 46  1  0  0  0
 34 35  1  0  0  0
 35 36  4  0  0  0
 35 37  4  0  0  0
 36 38  4  0  0  0
 37 39  4  0  0  0
 38 40  4  0  0  0
 39 40  4  0  0  0
 40 41  1  0  0  0
 41 42  1  0  0  0
 42 43  1  0  0  0
 42 44  2  0  0  0
 42 45  1  0  0  0
 46 47  1  0  0  0
 47 48  1  0  0  0
 47 50  1  0  0  0
 48 49  2  0  0  0
 48 53  1  0  0  0
 50 51  1  0  0  0
 50 52  1  0  0  0
 53 54  1  0  0  0
 54 55  1  0  0  0
 54 57  1  0  0  0
 55 56  2  0  0  0
 55 59  1  0  0  0
 57 58  1  0  0  0
 59 60  1  0  0  0
 60 61  1  0  0  0
 60 63  1  0  0  0
 61 62  2  0  0  0
 61 67  1  0  0  0
 63 64  1  0  0  0
 63 65  1  0  0  0
 64 66  1  0  0  0
 67 68  1  0  0  0
 68 69  1  0  0  0
 68 71  1  0  0  0
 69 70  2  0  0  0
 69 77  1  0  0  0
 71 72  1  0  0  0
 72 73  4  0  0  0
 72 74  4  0  0  0
 73 75  4  0  0  0
 74 76  4  0  0  0
 75 76  4  0  0  0
 77 78  1  0  0  0
 78 79  1  0  0  0
 78 81  1  0  0  0
 79 80  2  0  0  0
 79 85  1  0  0  0
 81 82  1  0  0  0
 81 83  1  0  0  0
 82 84  1  0  0  0
 85 86  1  0  0  0
 86 87  1  0  0  0
 86 89  1  0  0  0
 87 88  2  0  0  0
 87 92  1  0  0  0
 89 90  1  0  0  0
 89 91  1  0  0  0
  1 93  1  0  0  0
  1 94  1  0  0  0
  2 95  1  0  0  0
  5 96  1  0  0  0
  5 97  1  0  0  0
  6 98  1  0  0  0
  6 99  1  0  0  0
  7100  1  0  0  0
  7101  1  0  0  0
  8102  1  0  0  0
  9103  1  0  0  0
 12104  1  0  0  0
 13105  1  0  0  0
 13106  1  0  0  0
 13107  1  0  0  0
 14108  1  0  0  0
 14109  1  0  0  0
 14110  1  0  0  0
 16111  1  0  0  0
 19112  1  0  0  0
 19113  1  0  0  0
 20114  1  0  0  0
 20115  1  0  0  0
 21116  1  0  0  0
 21117  1  0  0  0
 22118  1  0  0  0
 23119  1  0  0  0
 26120  1  0  0  0
 26121  1  0  0  0
 28122  1  0  0  0
 30123  1  0  0  0
 31124  1  0  0  0
 34125  1  0  0  0
 34126  1  0  0  0
 36127  1  0  0  0
 37128  1  0  0  0
 38129  1  0  0  0
 39130  1  0  0  0
 43131  1  0  0  0
 45132  1  0  0  0
 46133  1  0  0  0
 47134  1  0  0  0
 50135  1  0  0  0
 51136  1  0  0  0
 52137  1  0  0  0
 52138  1  0  0  0
 52139  1  0  0  0
 53140  1  0  0  0
 54141  1  0  0  0
 57142  1  0  0  0
 57143  1  0  0  0
 58144  1  0  0  0
 59145  1  0  0  0
 60146  1  0  0  0
 63147  1  0  0  0
 64148  1  0  0  0
 64149  1  0  0  0
 65150  1  0  0  0
 65151  1  0  0  0
 65152  1  0  0  0
 66153  1  0  0  0
 66154  1  0  0  0
 66155  1  0  0  0
 67156  1  0  0  0
 68157  1  0  0  0
 71158  1  0  0  0
 71159  1  0  0  0
 74160  1  0  0  0
 75161  1  0  0  0
 77162  1  0  0  0
 78163  1  0  0  0
 81164  1  0  0  0
 82165  1  0  0  0
 82166  1  0  0  0
 83167  1  0  0  0
 83168  1  0  0  0
 83169  1  0  0  0
 84170  1  0  0  0
 84171  1  0  0  0
 84172  1  0  0  0
 85173  1  0  0  0
 86174  1  0  0  0
 89175  1  0  0  0
 90176  1  0  0  0
 90177  1  0  0  0
 90178  1  0  0  0
 91179  1  0  0  0
 91180  1  0  0  0
 91181  1  0  0  0
 92182  1  0  0  0
 92183  1  0  0  0
M  END
$$$$
