6i5n_ligand
  -I-interpret- 

163165  0  0  0  0  0  0  0  0999 V2000
   -9.3840   52.2570  -21.3890 N   0  3  0  0  0
   -9.0110   52.2470  -19.9740 C   0  0  0  0  0
   -7.5540   51.7980  -19.7220 C   0  0  0  0  0
   -6.8030   52.5490  -19.0900 O   0  0  0  0  0
   -9.9930   51.3760  -19.1400 C   0  0  0  0  0
   -7.1470   50.6090  -20.2000 N   0  0  0  0  0
   -5.8250   50.0880  -19.8110 C   0  0  0  0  0
   -4.7130   50.9970  -20.3100 C   0  0  0  0  0
   -4.7190   51.4290  -21.4670 O   0  0  0  0  0
   -5.7690   48.7070  -20.4820 C   0  0  0  0  0
   -7.2000   48.4320  -20.9750 C   0  0  0  0  0
   -7.7530   49.7750  -21.2570 C   0  0  0  0  0
   -3.7730   51.3150  -19.4180 N   0  0  0  0  0
   -2.5930   52.0750  -19.8030 C   0  0  0  0  0
   -1.8450   51.3450  -20.9010 C   0  0  0  0  0
   -1.5650   50.1640  -20.7680 O   0  0  0  0  0
   -1.6520   52.2820  -18.6080 C   0  0  0  0  0
   -2.0240   53.4860  -17.7630 C   0  0  0  0  0
   -2.6650   54.4210  -18.2870 O   0  0  0  0  0
   -1.6530   53.4980  -16.5720 O   0  0  0  0  0
   -1.5160   52.0410  -21.9810 N   0  0  0  0  0
   -0.7890   51.4050  -23.0700 C   0  0  0  0  0
    0.5950   50.9560  -22.6320 C   0  0  0  0  0
    1.3100   51.7290  -22.0180 O   0  0  0  0  0
   -0.6080   52.3350  -24.2650 C   0  0  0  0  0
    0.2340   51.7240  -25.3650 C   0  0  0  0  0
    1.6260   51.8540  -25.3770 C   0  0  0  0  0
   -0.3630   51.0070  -26.3890 C   0  0  0  0  0
    2.3890   51.2950  -26.3850 C   0  0  0  0  0
    0.3860   50.4510  -27.4020 C   0  0  0  0  0
    1.7590   50.5960  -27.4020 C   0  0  0  0  0
    2.4370   50.0400  -28.3670 O   0  0  0  0  0
    3.4660   50.8250  -29.3320 P   0  0  0  0  0
    3.6090   50.0160  -30.6390 O   0  0  0  0  0
    4.8120   50.8940  -28.5970 O   0  0  0  0  0
    3.0220   52.2150  -29.6100 O   0  0  0  0  0
    0.9640   49.7250  -22.9680 N   0  0  0  0  0
    2.3370   49.2420  -22.8000 C   0  0  0  0  0
    2.7940   48.5750  -24.0940 C   0  0  0  0  0
    2.0610   47.7460  -24.6430 O   0  0  0  0  0
    2.4720   48.2150  -21.6520 C   0  0  0  0  0
    1.5560   47.1250  -21.8660 O   0  0  0  0  0
    2.2190   48.8720  -20.2980 C   0  0  0  0  0
    3.9830   48.9350  -24.5790 N   0  0  0  0  0
    4.5260   48.2630  -25.7490 C   0  0  0  0  0
    4.6770   46.7730  -25.4880 C   0  0  0  0  0
    5.1950   46.3600  -24.4470 O   0  0  0  0  0
    5.8830   48.8460  -26.1370 C   0  0  0  0  0
    5.7980   50.2370  -26.3130 O   0  0  0  0  0
    4.2620   45.9660  -26.4600 N   0  0  0  0  0
    4.3170   44.5120  -26.3590 C   0  0  0  0  0
    5.0860   43.9930  -27.5600 C   0  0  0  0  0
    4.5860   44.0580  -28.6900 O   0  0  0  0  0
    2.9290   43.8710  -26.3210 C   0  0  0  0  0
    2.0560   44.4860  -25.2280 C   0  0  0  0  0
    3.0810   42.3610  -26.1500 C   0  0  0  0  0
    0.7730   43.6880  -24.9780 C   0  0  0  0  0
    6.2940   43.4800  -27.3210 N   0  0  0  0  0
    7.0510   42.8060  -28.3630 C   0  0  0  0  0
    6.4670   41.4190  -28.6100 C   0  0  0  0  0
    6.0470   40.7370  -27.6740 O   0  0  0  0  0
    8.5230   42.6710  -27.9540 C   0  0  0  0  0
    9.3420   43.9060  -28.1760 C   0  0  0  0  0
   10.7020   43.9420  -27.9400 N   0  0  0  0  0
    9.0010   45.1460  -28.6090 C   0  0  0  0  0
   11.1660   45.1470  -28.2220 C   0  0  0  0  0
   10.1550   45.9010  -28.6220 N   0  0  0  0  0
    6.4610   40.9870  -29.8660 N   0  0  0  0  0
    6.1600   39.5900  -30.1510 C   0  0  0  0  0
    7.2770   38.9460  -30.9400 C   0  0  0  0  0
    7.9780   39.6070  -31.6850 O   0  0  0  0  0
    4.8330   39.4210  -30.8930 C   0  0  0  0  0
    4.7840   40.2840  -32.1460 C   0  0  0  0  0
    3.6330   39.6920  -29.9640 C   0  0  0  0  0
    3.4660   40.1040  -32.9030 C   0  0  0  0  0
    7.7700   37.8830  -30.1880 N   0  0  0  0  0
    9.0400   37.3280  -30.6660 C   0  0  0  0  0
    8.8240   35.8670  -31.0590 C   0  0  0  0  0
    7.9470   35.2070  -30.4940 O   0  0  0  0  0
   10.1000   37.4500  -29.5090 C   0  0  0  0  0
    9.7860   36.4560  -28.4030 C   0  0  0  0  0
   10.1290   38.8630  -28.9510 C   0  0  0  0  0
    9.5980   35.3790  -32.0150 N   0  0  0  0  0
   -8.7237   52.8347  -21.9093 H   0  0  0  0  0
   -9.3630   51.3039  -21.7517 H   0  0  0  0  0
  -10.3243   52.6394  -21.4888 H   0  0  0  0  0
   -9.0805   53.2839  -19.6452 H   0  0  0  0  0
   -9.8858   50.3308  -19.4302 H   0  0  0  0  0
   -9.7634   51.4856  -18.0801 H   0  0  0  0  0
  -11.0157   51.7033  -19.3273 H   0  0  0  0  0
   -5.6890   50.0328  -18.7309 H   0  0  0  0  0
   -5.4312   47.9384  -19.7869 H   0  0  0  0  0
   -5.0531   48.6907  -21.3038 H   0  0  0  0  0
   -7.7918   47.8909  -20.2367 H   0  0  0  0  0
   -7.2147   47.7888  -21.8549 H   0  0  0  0  0
   -7.5181   50.1274  -22.2614 H   0  0  0  0  0
   -8.8427   49.7963  -21.2407 H   0  0  0  0  0
   -3.8835   51.0199  -18.4479 H   0  0  0  0  0
   -2.9247   53.0498  -20.1605 H   0  0  0  0  0
   -0.6487   52.4484  -19.0000 H   0  0  0  0  0
   -1.7199   51.3976  -17.9745 H   0  0  0  0  0
   -2.8472   54.2075  -19.2051 H   0  0  0  0  0
   -1.7734   53.0257  -22.0488 H   0  0  0  0  0
   -1.3949   50.5462  -23.3589 H   0  0  0  0  0
   -0.0976   53.2320  -23.9144 H   0  0  0  0  0
   -1.5952   52.5426  -24.6778 H   0  0  0  0  0
    2.1186   52.4063  -24.5768 H   0  0  0  0  0
   -1.4456   50.8806  -26.3930 H   0  0  0  0  0
    3.4736   51.4028  -26.3799 H   0  0  0  0  0
   -0.1044   49.8973  -28.2026 H   0  0  0  0  0
    3.8963   49.1237  -30.4319 H   0  0  0  0  0
    5.1177   50.0040  -28.4073 H   0  0  0  0  0
    0.2653   49.0922  -23.3576 H   0  0  0  0  0
    2.9534   50.1064  -22.5532 H   0  0  0  0  0
    3.4910   47.8281  -21.6476 H   0  0  0  0  0
    1.6433   46.4901  -21.1512 H   0  0  0  0  0
    2.9450   49.6698  -20.1414 H   0  0  0  0  0
    1.2114   49.2873  -20.2797 H   0  0  0  0  0
    2.3205   48.1266  -19.5092 H   0  0  0  0  0
    4.5119   49.6821  -24.1291 H   0  0  0  0  0
    3.8267   48.4181  -26.5706 H   0  0  0  0  0
    6.2046   48.3927  -27.0746 H   0  0  0  0  0
    6.5960   48.6361  -25.3397 H   0  0  0  0  0
    6.6607   50.5810  -26.5559 H   0  0  0  0  0
    3.8890   46.3819  -27.3134 H   0  0  0  0  0
    4.8084   44.2478  -25.4226 H   0  0  0  0  0
    2.4173   44.0672  -27.2632 H   0  0  0  0  0
    1.7701   45.4869  -25.5514 H   0  0  0  0  0
    2.6323   44.4918  -24.3028 H   0  0  0  0  0
    3.6495   41.9572  -26.9878 H   0  0  0  0  0
    3.6073   42.1533  -25.2184 H   0  0  0  0  0
    2.0943   41.8986  -26.1222 H   0  0  0  0  0
    0.1849   43.6514  -25.8950 H   0  0  0  0  0
    1.0311   42.6749  -24.6697 H   0  0  0  0  0
    0.1931   44.1718  -24.1920 H   0  0  0  0  0
    6.6952   43.5625  -26.3868 H   0  0  0  0  0
    6.9887   43.3989  -29.2755 H   0  0  0  0  0
    8.9561   41.8843  -28.5717 H   0  0  0  0  0
    8.5403   42.4634  -26.8841 H   0  0  0  0  0
    8.0036   45.4818  -28.8929 H   0  0  0  0  0
   12.2051   45.4655  -28.1391 H   0  0  0  0  0
    6.6666   41.6316  -30.6293 H   0  0  0  0  0
    6.0673   39.0887  -29.1875 H   0  0  0  0  0
    4.7637   38.3820  -31.2152 H   0  0  0  0  0
    5.6015   39.9852  -32.8021 H   0  0  0  0  0
    4.8700   41.3289  -31.8480 H   0  0  0  0  0
    3.6558   38.9914  -29.1293 H   0  0  0  0  0
    3.6916   40.7124  -29.5852 H   0  0  0  0  0
    2.7061   39.5632  -30.5229 H   0  0  0  0  0
    3.3580   39.0605  -33.1988 H   0  0  0  0  0
    2.6355   40.3876  -32.2565 H   0  0  0  0  0
    3.4692   40.7362  -33.7909 H   0  0  0  0  0
    7.2851   37.5186  -29.3680 H   0  0  0  0  0
    9.4027   37.8707  -31.5389 H   0  0  0  0  0
   11.0837   37.2233  -29.9201 H   0  0  0  0  0
    8.7937   36.6622  -28.0019 H   0  0  0  0  0
    9.8129   35.4441  -28.8073 H   0  0  0  0  0
   10.5271   36.5514  -27.6094 H   0  0  0  0  0
   10.3933   39.5607  -29.7456 H   0  0  0  0  0
    9.1454   39.1163  -28.5555 H   0  0  0  0  0
   10.8691   38.9220  -28.1530 H   0  0  0  0  0
    9.4849   34.4119  -32.3189 H   0  0  0  0  0
   10.3077   35.9699  -32.4480 H   0  0  0  0  0
  1  2  1  0  0  0
  2  3  1  0  0  0
  2  5  1  0  0  0
  3  4  2  0  0  0
  3  6  1  0  0  0
  6  7  1  0  0  0
  6 12  1  0  0  0
  7  8  1  0  0  0
  7 10  1  0  0  0
  8  9  2  0  0  0
  8 13  1  0  0  0
 10 11  1  0  0  0
 11 12  1  0  0  0
 13 14  1  0  0  0
 14 15  1  0  0  0
 14 17  1  0  0  0
 15 16  2  0  0  0
 15 21  1  0  0  0
 17 18  1  0  0  0
 18 19  1  0  0  0
 18 20  2  0  0  0
 21 22  1  0  0  0
 22 23  1  0  0  0
 22 25  1  0  0  0
 23 24  2  0  0  0
 23 37  1  0  0  0
 25 26  1  0  0  0
 26 27  4  0  0  0
 26 28  4  0  0  0
 27 29  4  0  0  0
 28 30  4  0  0  0
 29 31  4  0  0  0
 30 31  4  0  0  0
 31 32  1  0  0  0
 32 33  1  0  0  0
 33 34  1  0  0  0
 33 35  1  0  0  0
 33 36  2  0  0  0
 37 38  1  0  0  0
 38 39  1  0  0  0
 38 41  1  0  0  0
 39 40  2  0  0  0
 39 44  1  0  0  0
 41 42  1  0  0  0
 41 43  1  0  0  0
 44 45  1  0  0  0
 45 46  1  0  0  0
 45 48  1  0  0  0
 46 47  2  0  0  0
 46 50  1  0  0  0
 48 49  1  0  0  0
 50 51  1  0  0  0
 51 52  1  0  0  0
 51 54  1  0  0  0
 52 53  2  0  0  0
 52 58  1  0  0  0
 54 55  1  0  0  0
 54 56  1  0  0  0
 55 57  1  0  0  0
 58 59  1  0  0  0
 59 60  1  0  0  0
 59 62  1  0  0  0
 60 61  2  0  0  0
 60 68  1  0  0  0
 62 63  1  0  0  0
 63 64  4  0  0  0
 63 65  4  0  0  0
 64 66  4  0  0  0
 65 67  4  0  0  0
 66 67  4  0  0  0
 68 69  1  0  0  0
 69 70  1  0  0  0
 69 72  1  0  0  0
 70 71  2  0  0  0
 70 76  1  0  0  0
 72 73  1  0  0  0
 72 74  1  0  0  0
 73 75  1  0  0  0
 76 77  1  0  0  0
 77 78  1  0  0  0
 77 80  1  0  0  0
 78 79  2  0  0  0
 78 83  1  0  0  0
 80 81  1  0  0  0
 80 82  1  0  0  0
  1 84  1  0  0  0
  1 85  1  0  0  0
  1 86  1  0  0  0
  2 87  1  0  0  0
  5 88  1  0  0  0
  5 89  1  0  0  0
  5 90  1  0  0  0
  7 91  1  0  0  0
 10 92  1  0  0  0
 10 93  1  0  0  0
 11 94  1  0  0  0
 11 95  1  0  0  0
 12 96  1  0  0  0
 12 97  1  0  0  0
 13 98  1  0  0  0
 14 99  1  0  0  0
 17100  1  0  0  0
 17101  1  0  0  0
 19102  1  0  0  0
 21103  1  0  0  0
 22104  1  0  0  0
 25105  1  0  0  0
 25106  1  0  0  0
 27107  1  0  0  0
 28108  1  0  0  0
 29109  1  0  0  0
 30110  1  0  0  0
 34111  1  0  0  0
 35112  1  0  0  0
 37113  1  0  0  0
 38114  1  0  0  0
 41115  1  0  0  0
 42116  1  0  0  0
 43117  1  0  0  0
 43118  1  0  0  0
 43119  1  0  0  0
 44120  1  0  0  0
 45121  1  0  0  0
 48122  1  0  0  0
 48123  1  0  0  0
 49124  1  0  0  0
 50125  1  0  0  0
 51126  1  0  0  0
 54127  1  0  0  0
 55128  1  0  0  0
 55129  1  0  0  0
 56130  1  0  0  0
 56131  1  0  0  0
 56132  1  0  0  0
 57133  1  0  0  0
 57134  1  0  0  0
 57135  1  0  0  0
 58136  1  0  0  0
 59137  1  0  0  0
 62138  1  0  0  0
 62139  1  0  0  0
 65140  1  0  0  0
 66141  1  0  0  0
 68142  1  0  0  0
 69143  1  0  0  0
 72144  1  0  0  0
 73145  1  0  0  0
 73146  1  0  0  0
 74147  1  0  0  0
 74148  1  0  0  0
 74149  1  0  0  0
 75150  1  0  0  0
 75151  1  0  0  0
 75152  1  0  0  0
 76153  1  0  0  0
 77154  1  0  0  0
 80155  1  0  0  0
 81156  1  0  0  0
 81157  1  0  0  0
 81158  1  0  0  0
 82159  1  0  0  0
 82160  1  0  0  0
 82161  1  0  0  0
 83162  1  0  0  0
 83163  1  0  0  0
M  END
$$$$
