6iae_ligand
  -I-interpret- 

 42 44  0  0  0  0  0  0  0  0999 V2000
    0.7690  -24.4330   13.2900 O   0  0  0  0  0
    1.2140  -22.9340   13.6850 P   0  0  0  0  0
    0.9330  -21.9960   12.5360 O   0  0  0  0  0
    0.5480  -22.4730   14.9500 O   0  0  0  0  0
    2.7750  -22.9870   13.9920 O   0  0  0  0  0
    3.3310  -24.0240   15.0620 P   0  0  0  0  0
    2.2790  -25.0260   15.4630 O   0  0  0  0  0
    3.8910  -23.3510   16.2790 O   0  0  0  0  0
    4.5370  -24.6950   14.2630 O   0  0  0  0  0
    5.6930  -23.9390   14.0120 C   0  0  0  0  0
    6.8680  -24.8930   13.8410 C   0  0  0  0  0
    7.9770  -24.1230   13.4360 O   0  0  0  0  0
    7.2200  -25.5650   15.1650 C   0  0  0  0  0
    6.8790  -26.9290   15.1890 O   0  0  0  0  0
    8.7170  -25.4190   15.3030 C   0  0  0  0  0
    9.3810  -26.6310   15.0130 O   0  0  0  0  0
    9.0570  -24.3130   14.3180 C   0  0  0  0  0
    9.1520  -23.1110   15.1450 N   0  0  0  0  0
    8.1230  -22.4300   15.7480 C   0  0  0  0  0
    8.6340  -21.3910   16.4350 N   0  0  0  0  0
    9.9740  -21.3980   16.2740 C   0  0  0  0  0
   10.9780  -20.5670   16.7430 C   0  0  0  0  0
   10.6940  -19.6050   17.4570 O   0  0  0  0  0
   12.2920  -20.8340   16.3970 N   0  0  0  0  0
   12.6090  -21.9150   15.5920 C   0  0  0  0  0
   13.8730  -22.1720   15.2610 N   0  0  0  0  0
   11.6020  -22.7340   15.1300 N   0  0  0  0  0
   10.3130  -22.4770   15.4670 C   0  0  0  0  0
    1.2123  -24.6941   12.4795 H   0  0  0  0  0
    1.3720  -22.3192   11.7458 H   0  0  0  0  0
    1.9273  -25.4508   14.6772 H   0  0  0  0  0
    5.8823  -23.2617   14.8448 H   0  0  0  0  0
    5.5604  -23.3466   13.1067 H   0  0  0  0  0
    6.6095  -25.6623   13.1133 H   0  0  0  0  0
    6.6643  -25.1005   15.9796 H   0  0  0  0  0
    7.1200  -27.3030   16.0397 H   0  0  0  0  0
    9.0357  -25.1754   16.3165 H   0  0  0  0  0
   10.3281  -26.5067   15.1091 H   0  0  0  0  0
    9.9581  -24.5361   13.7468 H   0  0  0  0  0
    7.0661  -22.6883   15.6813 H   0  0  0  0  0
   14.6220  -21.5690   15.6013 H   0  0  0  0  0
   11.8251  -23.5323   14.5356 H   0  0  0  0  0
  1  2  1  0  0  0
  2  3  1  0  0  0
  2  4  2  0  0  0
  2  5  1  0  0  0
  5  6  1  0  0  0
  6  7  1  0  0  0
  6  8  2  0  0  0
  6  9  1  0  0  0
  9 10  1  0  0  0
 10 11  1  0  0  0
 11 12  1  0  0  0
 11 13  1  0  0  0
 12 17  1  0  0  0
 13 14  1  0  0  0
 13 15  1  0  0  0
 15 16  1  0  0  0
 15 17  1  0  0  0
 17 18  1  0  0  0
 18 19  4  0  0  0
 18 28  4  0  0  0
 19 20  4  0  0  0
 20 21  4  0  0  0
 21 22  1  0  0  0
 21 28  4  0  0  0
 22 23  2  0  0  0
 22 24  1  0  0  0
 24 25  4  0  0  0
 25 26  2  0  0  0
 25 27  1  0  0  0
 27 28  1  0  0  0
  1 29  1  0  0  0
  3 30  1  0  0  0
  7 31  1  0  0  0
 10 32  1  0  0  0
 10 33  1  0  0  0
 11 34  1  0  0  0
 13 35  1  0  0  0
 14 36  1  0  0  0
 15 37  1  0  0  0
 16 38  1  0  0  0
 17 39  1  0  0  0
 19 40  1  0  0  0
 26 41  1  0  0  0
 27 42  1  0  0  0
M  END
$$$$
