6ipk_ligand
  -I-interpret- 

 46 48  0  0  0  0  0  0  0  0999 V2000
    3.0570  -38.7530   -2.7140 P   0  0  0  0  0
    3.5800  -39.3030   -3.9990 O   0  0  0  0  0
    3.8180  -39.2050   -1.4870 O   0  0  0  0  0
    1.5640  -38.8890   -2.5700 O   0  0  0  0  0
    3.4480  -37.2030   -2.7950 O   0  0  0  0  0
    2.4760  -35.9540   -2.5960 P   0  0  0  0  0
    1.1910  -36.1550   -3.3810 O   0  0  0  0  0
    3.3120  -34.7270   -2.8600 O   0  0  0  0  0
    2.1340  -35.9490   -1.0100 O   0  0  0  0  0
    0.6440  -35.8430   -0.3820 P   0  0  0  0  0
   -0.3490  -36.6910   -1.1460 O   0  0  0  0  0
    0.7450  -36.1100    1.1030 O   0  0  0  0  0
    0.2780  -34.2860   -0.5250 O   0  0  0  0  0
    0.8810  -33.3700   -1.4290 C   0  0  0  0  0
    0.4540  -31.9450   -1.1130 C   0  0  0  0  0
   -0.8490  -31.9680   -0.5210 O   0  0  0  0  0
    1.3970  -31.2450   -0.1370 C   0  0  0  0  0
    1.6670  -29.9090   -0.5410 O   0  0  0  0  0
    0.6350  -31.1740    1.1530 C   0  0  0  0  0
   -0.7970  -31.1800    0.6610 C   0  0  0  0  0
   -1.6640  -31.6760    1.7480 N   0  3  0  0  0
   -1.7850  -32.8870    2.3180 C   0  0  0  0  0
   -2.6730  -32.9720    3.3150 N   0  0  0  0  0
   -3.1730  -31.7300    3.4190 C   0  0  0  0  0
   -4.1820  -31.0490    4.2620 C   0  0  0  0  0
   -4.7890  -31.6950    5.1440 O   0  0  0  0  0
   -4.4170  -29.7350    4.0470 N   0  0  0  0  0
   -3.7670  -29.0270    3.0840 C   0  0  0  0  0
   -4.0400  -27.7150    2.9110 N   0  0  0  0  0
   -2.8280  -29.5780    2.2710 N   0  0  0  0  0
   -2.5060  -30.8880    2.3970 C   0  0  0  0  0
   -1.1040  -33.9080    1.9550 O   0  0  0  0  0
    3.4243  -38.8118   -0.7047 H   0  0  0  0  0
    1.2899  -38.5190   -1.7277 H   0  0  0  0  0
    0.7729  -36.9736   -3.1041 H   0  0  0  0  0
   -0.3338  -36.4424   -2.0731 H   0  0  0  0  0
    0.5660  -33.6160   -2.4431 H   0  0  0  0  0
    1.9645  -33.4428   -1.3347 H   0  0  0  0  0
    0.4674  -31.3943   -2.0536 H   0  0  0  0  0
    2.3443  -31.7803   -0.0729 H   0  0  0  0  0
    2.2608  -29.4984    0.0917 H   0  0  0  0  0
    0.8839  -30.3025    1.7585 H   0  0  0  0  0
    0.8632  -31.9896    1.8391 H   0  0  0  0  0
   -1.1584  -30.1846    0.4030 H   0  0  0  0  0
   -4.7330  -27.2560    3.5022 H   0  0  0  0  0
   -2.3652  -29.0050    1.5654 H   0  0  0  0  0
  1  2  2  0  0  0
  1  3  1  0  0  0
  1  4  1  0  0  0
  1  5  1  0  0  0
  5  6  1  0  0  0
  6  7  1  0  0  0
  6  8  2  0  0  0
  6  9  1  0  0  0
  9 10  1  0  0  0
 10 11  1  0  0  0
 10 12  2  0  0  0
 10 13  1  0  0  0
 13 14  1  0  0  0
 14 15  1  0  0  0
 15 16  1  0  0  0
 15 17  1  0  0  0
 16 20  1  0  0  0
 17 18  1  0  0  0
 17 19  1  0  0  0
 19 20  1  0  0  0
 20 21  1  0  0  0
 21 22  1  0  0  0
 21 31  2  0  0  0
 22 23  1  0  0  0
 22 32  2  0  0  0
 23 24  2  0  0  0
 24 25  1  0  0  0
 24 31  1  0  0  0
 25 26  2  0  0  0
 25 27  1  0  0  0
 27 28  4  0  0  0
 28 29  2  0  0  0
 28 30  1  0  0  0
 30 31  1  0  0  0
  3 33  1  0  0  0
  4 34  1  0  0  0
  7 35  1  0  0  0
 11 36  1  0  0  0
 14 37  1  0  0  0
 14 38  1  0  0  0
 15 39  1  0  0  0
 17 40  1  0  0  0
 18 41  1  0  0  0
 19 42  1  0  0  0
 19 43  1  0  0  0
 20 44  1  0  0  0
 29 45  1  0  0  0
 30 46  1  0  0  0
M  END
$$$$
