6ipm_ligand
  -I-interpret- 

 43 44  0  0  0  0  0  0  0  0999 V2000
  249.7780  342.3880  102.9060 N   0  0  0  0  0
  250.4910  343.3940  103.6210 C   0  0  0  0  0
  250.9020  343.1690  104.8900 N   0  0  0  0  0
  250.6410  341.9910  105.5030 C   0  0  0  0  0
  249.9440  340.9920  104.8260 C   0  0  0  0  0
  249.5200  341.2100  103.5170 C   0  0  0  0  0
  250.7600  344.4920  103.0930 O   0  0  0  0  0
  251.0590  341.7860  106.7770 N   0  0  0  0  0
  249.3480  342.6690  101.5240 C   0  0  0  0  0
  250.5400  342.5870  100.5730 C   0  0  0  0  0
  250.3860  341.2270   99.9170 C   0  0  0  0  0
  248.8780  341.0700   99.8910 C   0  0  0  0  0
  248.3740  341.7300  101.0520 O   0  0  0  0  0
  250.9080  341.1360   98.5890 O   0  0  0  0  0
  248.4120  339.6340   99.8440 C   0  0  0  0  0
  248.9620  338.9200  100.9510 O   0  0  0  0  0
  249.6380  337.4760  100.7630 P   0  0  0  0  0
  248.7240  336.6220   99.9120 O   0  0  0  0  0
  250.0670  337.0350  102.1370 O   0  0  0  0  0
  251.0020  337.7960   99.9480 O   0  0  0  0  0
  251.3720  337.5290   98.3830 P   0  0  0  0  0
  250.1940  337.0850   97.5770 O   0  0  0  0  0
  252.1210  338.7870   97.9950 O   0  0  0  0  0
  252.4700  336.3510   98.4800 O   0  0  0  0  0
  252.2020  334.7690   98.3060 P   0  0  0  0  0
  252.7160  334.4380   96.9360 O   0  0  0  0  0
  250.7270  334.5210   98.5340 O   0  0  0  0  0
  253.0810  334.1970   99.3830 O   0  0  0  0  0
  249.7313  340.0434  105.3190 H   0  0  0  0  0
  248.9786  340.4285  102.9839 H   0  0  0  0  0
  251.5687  342.5187  107.2707 H   0  0  0  0  0
  248.9122  343.6679  101.5404 H   0  0  0  0  0
  251.4929  342.6924  101.0916 H   0  0  0  0  0
  250.5485  343.3998   99.8468 H   0  0  0  0  0
  250.9413  340.4604  100.4574 H   0  0  0  0  0
  248.4951  341.5126   98.9715 H   0  0  0  0  0
  250.7695  340.2478   98.2521 H   0  0  0  0  0
  248.7441  339.1741   98.9133 H   0  0  0  0  0
  247.3237  339.6029   99.8955 H   0  0  0  0  0
  248.5624  337.0639   99.0752 H   0  0  0  0  0
  252.8444  338.9298   98.6098 H   0  0  0  0  0
  250.4985  334.7625   99.4346 H   0  0  0  0  0
  252.7227  334.4279  100.2432 H   0  0  0  0  0
  1  2  1  0  0  0
  1  6  1  0  0  0
  1  9  1  0  0  0
  2  3  1  0  0  0
  2  7  2  0  0  0
  3  4  4  0  0  0
  4  5  1  0  0  0
  4  8  2  0  0  0
  5  6  2  0  0  0
  9 10  1  0  0  0
  9 13  1  0  0  0
 10 11  1  0  0  0
 11 12  1  0  0  0
 11 14  1  0  0  0
 12 13  1  0  0  0
 12 15  1  0  0  0
 15 16  1  0  0  0
 16 17  1  0  0  0
 17 18  1  0  0  0
 17 19  2  0  0  0
 17 20  1  0  0  0
 20 21  1  0  0  0
 21 22  2  0  0  0
 21 23  1  0  0  0
 21 24  1  0  0  0
 24 25  1  0  0  0
 25 26  2  0  0  0
 25 27  1  0  0  0
 25 28  1  0  0  0
  5 29  1  0  0  0
  6 30  1  0  0  0
  8 31  1  0  0  0
  9 32  1  0  0  0
 10 33  1  0  0  0
 10 34  1  0  0  0
 11 35  1  0  0  0
 12 36  1  0  0  0
 14 37  1  0  0  0
 15 38  1  0  0  0
 15 39  1  0  0  0
 18 40  1  0  0  0
 23 41  1  0  0  0
 27 42  1  0  0  0
 28 43  1  0  0  0
M  END
$$$$
