6j72_ligand
  -I-interpret- 

 47 49  0  0  0  0  0  0  0  0999 V2000
    3.8910    9.7550   43.8640 P   0  0  0  0  0
    2.6210   10.5530   43.6950 O   0  0  0  0  0
    3.9040    8.6050   42.8870 O   0  0  0  0  0
    5.0830   10.6470   43.6060 O   0  0  0  0  0
    3.9700    9.1840   45.3700 O   0  0  0  0  0
    3.7490   10.1500   46.6380 P   0  0  0  0  0
    2.4620   10.9210   46.4780 O   0  0  0  0  0
    4.9190   11.0850   46.8280 O   0  0  0  0  0
    3.6060    9.1650   47.9020 O   0  0  0  0  0
    2.1850    8.5520   48.3430 P   0  0  0  0  0
    1.4800    9.5170   49.2640 O   0  0  0  0  0
    1.3310    8.2100   47.1460 O   0  0  0  0  0
    2.5800    7.2170   49.1440 O   0  0  0  0  0
    3.7760    6.5160   48.8900 C   0  0  0  0  0
    3.6680    5.1820   49.6130 C   0  0  0  0  0
    4.1380    5.3870   50.9280 O   0  0  0  0  0
    2.2180    4.7350   49.7110 C   0  0  0  0  0
    2.1110    3.3840   49.3280 O   0  0  0  0  0
    1.8470    4.8720   51.1720 C   0  0  0  0  0
    1.1510    3.7350   51.6240 O   0  0  0  0  0
    3.1750    5.0180   51.8930 C   0  0  0  0  0
    3.0900    6.0800   52.9090 N   0  0  0  0  0
    2.7950    7.4040   52.7030 C   0  0  0  0  0
    2.8270    8.0380   53.8980 N   0  0  0  0  0
    3.1430    7.1400   54.8580 C   0  0  0  0  0
    3.3090    7.2500   56.2330 C   0  0  0  0  0
    3.1610    8.3360   56.7910 O   0  0  0  0  0
    3.6420    6.1290   56.9680 N   0  0  0  0  0
    3.8030    4.9110   56.3380 C   0  0  0  0  0
    4.1220    3.8300   57.0440 N   0  0  0  0  0
    3.6360    4.8120   54.9740 N   0  0  0  0  0
    3.3130    5.9070   54.2470 C   0  0  0  0  0
    2.6177   11.2830   44.3185 H   0  0  0  0  0
    5.0744   11.3785   44.2277 H   0  0  0  0  0
    5.7243   10.5720   46.9273 H   0  0  0  0  0
    1.8055    7.5961   46.5807 H   0  0  0  0  0
    4.6381    7.0802   49.2459 H   0  0  0  0  0
    3.9163    6.3656   47.8196 H   0  0  0  0  0
    4.2383    4.4264   49.0726 H   0  0  0  0  0
    1.5682    5.3255   49.0650 H   0  0  0  0  0
    1.1943    3.1062   49.3914 H   0  0  0  0  0
    1.1858    5.7199   51.3509 H   0  0  0  0  0
    0.9273    3.8457   52.5510 H   0  0  0  0  0
    3.4394    4.0829   52.3867 H   0  0  0  0  0
    2.5728    7.8661   51.7411 H   0  0  0  0  0
    4.2484    3.8993   58.0538 H   0  0  0  0  0
    3.7561    3.9112   54.5109 H   0  0  0  0  0
  1  2  1  0  0  0
  1  3  2  0  0  0
  1  4  1  0  0  0
  1  5  1  0  0  0
  5  6  1  0  0  0
  6  7  2  0  0  0
  6  8  1  0  0  0
  6  9  1  0  0  0
  9 10  1  0  0  0
 10 11  2  0  0  0
 10 12  1  0  0  0
 10 13  1  0  0  0
 13 14  1  0  0  0
 14 15  1  0  0  0
 15 16  1  0  0  0
 15 17  1  0  0  0
 16 21  1  0  0  0
 17 18  1  0  0  0
 17 19  1  0  0  0
 19 20  1  0  0  0
 19 21  1  0  0  0
 21 22  1  0  0  0
 22 23  4  0  0  0
 22 32  4  0  0  0
 23 24  4  0  0  0
 24 25  4  0  0  0
 25 26  1  0  0  0
 25 32  4  0  0  0
 26 27  2  0  0  0
 26 28  1  0  0  0
 28 29  4  0  0  0
 29 30  2  0  0  0
 29 31  1  0  0  0
 31 32  1  0  0  0
  2 33  1  0  0  0
  4 34  1  0  0  0
  8 35  1  0  0  0
 12 36  1  0  0  0
 14 37  1  0  0  0
 14 38  1  0  0  0
 15 39  1  0  0  0
 17 40  1  0  0  0
 18 41  1  0  0  0
 19 42  1  0  0  0
 20 43  1  0  0  0
 21 44  1  0  0  0
 23 45  1  0  0  0
 30 46  1  0  0  0
 31 47  1  0  0  0
M  END
$$$$
