6n54_ligand
  -I-interpret- 

 35 36  0  0  0  0  0  0  0  0999 V2000
    9.6980  -22.4710  -26.4580 C   0  0  0  0  0
    9.9960  -22.1740  -24.9630 C   0  0  0  0  0
    8.6870  -22.4310  -24.1230 C   0  0  0  0  0
   11.9530  -23.2660  -25.6270 C   0  0  0  0  0
   10.9890  -23.2690  -26.8700 C   0  0  0  0  0
   12.3430  -25.8790  -25.3270 C   0  0  0  0  0
   13.1130  -27.0260  -25.1740 C   0  0  0  0  0
   14.5720  -26.9480  -25.1340 C   0  0  0  0  0
   14.3250  -24.5360  -25.4100 C   0  0  0  0  0
   11.5610  -22.6330  -28.0950 N   0  0  0  0  0
   12.7380  -23.1080  -28.5290 N   0  0  0  0  0
   13.7700  -23.5240  -28.9060 N   0  0  0  0  0
   12.8440  -24.5950  -25.4540 N   0  0  0  0  0
   15.1230  -25.7220  -25.2520 N   0  0  0  0  0
   15.4080  -28.0690  -24.9810 N   0  0  0  0  0
    9.5380  -21.2670  -27.1620 O   0  0  0  0  0
    8.5660  -21.5310  -23.1060 O   0  0  0  0  0
    8.7670  -19.3660  -24.6800 O   0  0  0  0  0
    7.4680  -19.2580  -22.4730 O   0  0  0  0  0
    9.9490  -19.4470  -22.4200 O   0  0  0  0  0
   11.0700  -23.0480  -24.5840 O   0  0  0  0  0
   14.8390  -23.4360  -25.5140 O   0  0  0  0  0
    8.6960  -19.7550  -23.2320 P   0  0  0  0  0
    8.7807  -23.0236  -26.6613 H   0  0  0  0  0
   10.2904  -21.1397  -24.7850 H   0  0  0  0  0
    8.7401  -23.4323  -23.6956 H   0  0  0  0  0
    7.8255  -22.3269  -24.7826 H   0  0  0  0  0
   12.7368  -22.5127  -25.7068 H   0  0  0  0  0
   10.7944  -24.3099  -27.1286 H   0  0  0  0  0
   11.2600  -26.0001  -25.3487 H   0  0  0  0  0
   12.6229  -27.9953  -25.0827 H   0  0  0  0  0
   16.4209  -27.9508  -24.9601 H   0  0  0  0  0
    8.7363  -20.8291  -26.8668 H   0  0  0  0  0
    7.5141  -19.5563  -21.5617 H   0  0  0  0  0
    9.8168  -19.7268  -21.5112 H   0  0  0  0  0
  2  1  1  0  0  0
  5  1  1  0  0  0
  1 16  1  0  0  0
  2  3  1  0  0  0
 21  2  1  0  0  0
  3 17  1  0  0  0
  4  5  1  0  0  0
 13  4  1  0  0  0
  4 21  1  0  0  0
  5 10  1  0  0  0
  6  7  2  0  0  0
  6 13  1  0  0  0
  7  8  1  0  0  0
  8 14  4  0  0  0
  8 15  2  0  0  0
 13  9  1  0  0  0
  9 14  1  0  0  0
  9 22  2  0  0  0
 10 11  2  0  0  0
 11 12  3  0  0  0
 17 23  1  0  0  0
 23 18  2  0  0  0
 23 19  1  0  0  0
 23 20  1  0  0  0
  1 24  1  0  0  0
  2 25  1  0  0  0
  3 26  1  0  0  0
  3 27  1  0  0  0
  4 28  1  0  0  0
  5 29  1  0  0  0
  6 30  1  0  0  0
  7 31  1  0  0  0
 15 32  1  0  0  0
 16 33  1  0  0  0
 19 34  1  0  0  0
 20 35  1  0  0  0
M  END
$$$$
