6n95_ligand
  -I-interpret- 

 96 98  0  0  0  0  0  0  0  0999 V2000
   19.7500   27.0430   13.4230 O   0  5  0  0  0
   19.2860   26.6850   14.8090 P   0  0  0  0  0
   19.1930   27.8910   15.7050 O   0  5  0  0  0
   18.0490   25.8320   14.7720 O   0  0  0  0  0
   20.4980   25.8010   15.4170 O   0  0  0  0  0
   20.3730   25.0750   16.6230 C   0  0  0  0  0
   21.1570   23.7990   16.4420 C   0  0  0  0  0
   21.0140   23.1790   15.1390 O   0  0  0  0  0
   22.5420   24.3670   16.7000 C   0  0  0  0  0
   23.4410   23.2670   17.1270 N   0  0  0  0  0
   24.5750   23.0170   16.4860 C   0  0  0  0  0
   25.1720   23.5560   15.4100 N   0  0  0  0  0
   26.3460   23.0460   14.9980 C   0  0  0  0  0
   26.9650   22.0030   15.6090 N   0  0  0  0  0
   26.4570   21.3950   16.6960 C   0  0  0  0  0
   27.0720   20.3680   17.3170 N   0  0  0  0  0
   25.1890   21.8930   17.2150 C   0  0  0  0  0
   24.3640   21.5730   18.2370 N   0  0  0  0  0
   23.2960   22.4180   18.1780 C   0  0  0  0  0
   22.4570   25.4260   17.6880 O   0  0  0  0  0
   21.0690   25.8010   17.7610 C   0  0  0  0  0
   20.4430   25.3130   19.0670 C   0  0  0  0  0
   20.0670   23.9500   18.8460 O   0  0  0  0  0
   18.7910   23.3000   19.5480 P   0  0  0  0  0
   17.6360   24.1870   19.1680 O   0  5  0  0  0
   18.5350   21.8830   19.1490 O   0  0  0  0  0
   18.9940   23.4730   21.1320 O   0  0  0  0  0
   18.3460   22.4760   22.1920 P   0  0  0  0  0
   18.4820   23.1470   23.5020 O   0  0  0  0  0
   16.9690   22.1610   21.7460 O   0  5  0  0  0
   19.1750   21.0770   22.2560 O   0  0  0  0  0
   20.5600   21.1140   22.5790 C   0  0  0  0  0
   21.2370   19.8500   22.0840 C   0  0  0  0  0
   20.7160   18.6740   22.8890 C   0  0  0  0  0
   22.7340   20.0080   22.2950 C   0  0  0  0  0
   20.9570   19.6240   20.5960 C   0  0  0  0  0
   21.2670   20.8300   19.9030 O   0  0  0  0  0
   21.8120   18.5260   20.0250 C   0  0  0  0  0
   21.6100   17.3490   20.2800 O   0  0  0  0  0
   22.8020   18.9250   19.2380 N   0  0  0  0  0
   23.7060   18.0020   18.5930 C   0  0  0  0  0
   24.7750   17.4740   19.5450 C   0  0  0  0  0
   25.6630   16.5500   18.7550 C   0  0  0  0  0
   25.1610   15.6410   18.1360 O   0  0  0  0  0
   26.9500   16.8280   18.7300 N   0  0  0  0  0
   27.8890   16.1620   17.8800 C   0  0  0  0  0
   28.5010   17.1970   16.9510 C   0  0  0  0  0
   29.5380   16.4530   15.7390 S   0  0  0  0  0
   30.8710   15.8270   16.5800 C   0  0  0  0  0
   31.2190   16.2360   17.6860 O   0  0  0  0  0
   31.6370   14.7700   15.9090 C   0  0  0  0  0
   31.1030   14.7010   14.5000 C   0  0  0  0  0
   31.2370   13.2920   16.5150 S   0  0  0  0  0
   31.9090   12.3580   15.6460 O   0  0  0  0  0
   31.7030   13.2050   17.8790 O   0  0  0  0  0
   29.7840   13.1980   16.4200 O   0  5  0  0  0
   20.5393   27.5863   13.4814 H   0  0  0  0  0
   20.0196   28.3780   15.6710 H   0  0  0  0  0
   19.3157   24.9304   16.8451 H   0  0  0  0  0
   20.8498   22.9697   17.0792 H   0  0  0  0  0
   20.1200   22.8430   15.0421 H   0  0  0  0  0
   22.9561   24.8052   15.7919 H   0  0  0  0  0
   26.8262   23.4933   14.1277 H   0  0  0  0  0
   27.9635   20.0192   16.9648 H   0  0  0  0  0
   26.6457   19.9400   18.1389 H   0  0  0  0  0
   22.4532   22.4134   18.8693 H   0  0  0  0  0
   20.9704   26.8851   17.7051 H   0  0  0  0  0
   19.5790   25.9194   19.3388 H   0  0  0  0  0
   21.1469   25.3967   19.8950 H   0  0  0  0  0
   17.8257   25.0894   19.4349 H   0  0  0  0  0
   17.0022   21.7299   20.8889 H   0  0  0  0  0
   20.6761   21.1852   23.6605 H   0  0  0  0  0
   21.0186   21.9794   22.1007 H   0  0  0  0  0
   20.9431   18.8283   23.9439 H   0  0  0  0  0
   19.6371   18.5939   22.7562 H   0  0  0  0  0
   21.1949   17.7579   22.5432 H   0  0  0  0  0
   23.0896   20.8718   21.7333 H   0  0  0  0  0
   22.9366   20.1544   23.3559 H   0  0  0  0  0
   23.2454   19.1107   21.9465 H   0  0  0  0  0
   19.9112   19.3391   20.4815 H   0  0  0  0  0
   21.0985   20.7113   18.9654 H   0  0  0  0  0
   22.9301   19.9248   19.0819 H   0  0  0  0  0
   24.2075   18.5316   17.7830 H   0  0  0  0  0
   23.1231   17.1529   18.2360 H   0  0  0  0  0
   24.3159   16.9430   20.3789 H   0  0  0  0  0
   25.3548   18.2968   19.9632 H   0  0  0  0  0
   27.2969   17.5589   19.3512 H   0  0  0  0  0
   27.3875   15.3868   17.3006 H   0  0  0  0  0
   28.6667   15.6874   18.4783 H   0  0  0  0  0
   29.1061   17.8791   17.5483 H   0  0  0  0  0
   27.6928   17.7181   16.4379 H   0  0  0  0  0
   32.7011   14.9822   16.0126 H   0  0  0  0  0
   30.0400   14.4614   14.5270 H   0  0  0  0  0
   31.2473   15.6642   14.0105 H   0  0  0  0  0
   31.6371   13.9278   13.9478 H   0  0  0  0  0
   29.3836   13.8366   17.0145 H   0  0  0  0  0
  2  1  1  0  0  0
  2  3  1  0  0  0
  2  4  2  0  0  0
  5  2  1  0  0  0
  6  5  1  0  0  0
  6  7  1  0  0  0
 21  6  1  0  0  0
  7  8  1  0  0  0
  9  7  1  0  0  0
  9 10  1  0  0  0
 20  9  1  0  0  0
 10 11  1  0  0  0
 10 19  1  0  0  0
 11 12  4  0  0  0
 11 17  4  0  0  0
 12 13  4  0  0  0
 13 14  4  0  0  0
 15 14  4  0  0  0
 15 16  1  0  0  0
 17 15  4  0  0  0
 18 17  1  0  0  0
 19 18  2  0  0  0
 21 20  1  0  0  0
 22 21  1  0  0  0
 23 22  1  0  0  0
 24 23  1  0  0  0
 24 25  1  0  0  0
 24 26  2  0  0  0
 27 24  1  0  0  0
 28 27  1  0  0  0
 28 29  2  0  0  0
 28 30  1  0  0  0
 31 28  1  0  0  0
 32 31  1  0  0  0
 33 32  1  0  0  0
 33 34  1  0  0  0
 33 35  1  0  0  0
 36 33  1  0  0  0
 36 37  1  0  0  0
 38 36  1  0  0  0
 38 39  2  0  0  0
 40 38  1  0  0  0
 41 40  1  0  0  0
 42 41  1  0  0  0
 43 42  1  0  0  0
 43 44  2  0  0  0
 45 43  1  0  0  0
 46 45  1  0  0  0
 47 46  1  0  0  0
 48 47  1  0  0  0
 49 48  1  0  0  0
 49 50  2  0  0  0
 51 49  1  0  0  0
 51 52  1  0  0  0
 53 51  1  0  0  0
 53 54  2  0  0  0
 53 55  2  0  0  0
 56 53  1  0  0  0
  1 57  1  0  0  0
  3 58  1  0  0  0
  6 59  1  0  0  0
  7 60  1  0  0  0
  8 61  1  0  0  0
  9 62  1  0  0  0
 13 63  1  0  0  0
 16 64  1  0  0  0
 16 65  1  0  0  0
 19 66  1  0  0  0
 21 67  1  0  0  0
 22 68  1  0  0  0
 22 69  1  0  0  0
 25 70  1  0  0  0
 30 71  1  0  0  0
 32 72  1  0  0  0
 32 73  1  0  0  0
 34 74  1  0  0  0
 34 75  1  0  0  0
 34 76  1  0  0  0
 35 77  1  0  0  0
 35 78  1  0  0  0
 35 79  1  0  0  0
 36 80  1  0  0  0
 37 81  1  0  0  0
 40 82  1  0  0  0
 41 83  1  0  0  0
 41 84  1  0  0  0
 42 85  1  0  0  0
 42 86  1  0  0  0
 45 87  1  0  0  0
 46 88  1  0  0  0
 46 89  1  0  0  0
 47 90  1  0  0  0
 47 91  1  0  0  0
 51 92  1  0  0  0
 52 93  1  0  0  0
 52 94  1  0  0  0
 52 95  1  0  0  0
 56 96  1  0  0  0
M  END
$$$$
