6npf_ligand
  -I-interpret- 

 18 18  0  0  0  0  0  0  0  0999 V2000
  -38.7950  -62.7120   85.3630 O   0  5  0  0  0
  -38.0410  -61.8880   84.2030 P   0  0  0  0  0
  -39.0820  -61.6090   83.0410 O   0  5  0  0  0
  -37.6280  -60.5520   84.6600 O   0  0  0  0  0
  -36.7570  -63.0400   83.5770 C   0  0  0  0  0
  -35.5660  -62.1680   83.8960 C   0  0  0  0  0
  -34.8840  -62.8340   84.8570 C   0  0  0  0  0
  -33.8480  -62.3460   85.3020 O   0  0  0  0  0
  -35.3940  -64.0800   85.0500 N   0  0  0  0  0
  -34.9800  -65.2700   85.8940 O   0  0  0  0  0
  -36.4910  -64.2380   84.3200 C   0  0  0  0  0
  -37.0810  -65.3320   84.2700 O   0  0  0  0  0
  -39.0481  -63.5753   85.0279 H   0  0  0  0  0
  -39.3991  -62.4442   82.6896 H   0  0  0  0  0
  -37.0137  -63.3862   82.5758 H   0  0  0  0  0
  -35.8722  -61.1780   84.2339 H   0  0  0  0  0
  -34.9494  -61.9924   83.0145 H   0  0  0  0  0
  -35.6047  -65.9870   85.7625 H   0  0  0  0  0
  2  1  1  0  0  0
  2  3  1  0  0  0
  2  4  2  0  0  0
  5  6  1  0  0  0
  5 11  1  0  0  0
  6  7  1  0  0  0
  7  8  2  0  0  0
  9  7  1  0  0  0
  9 10  1  0  0  0
 11  9  1  0  0  0
 11 12  2  0  0  0
  5  2  1  0  0  0
  1 13  1  0  0  0
  3 14  1  0  0  0
  5 15  1  0  0  0
  6 16  1  0  0  0
  6 17  1  0  0  0
 10 18  1  0  0  0
M  END
$$$$
