6qhg_ligand
  -I-interpret- 

 52 54  0  0  0  0  0  0  0  0999 V2000
   -2.1910    0.1080  102.5620 P   0  0  0  0  0
   -3.6000    0.1770  103.0940 O   0  0  0  0  0
   -1.9370   -1.2840  102.0360 O   0  0  0  0  0
   -1.1940    0.4470  103.6490 O   0  0  0  0  0
   -2.0650    1.1310  101.3600 O   0  0  0  0  0
   -0.8400    2.0560  100.9510 P   0  0  0  0  0
   -1.0000    3.4240  101.5740 O   0  0  0  0  0
    0.4780    1.4420  101.3750 O   0  0  0  0  0
   -0.9290    2.1350   99.3680 O   0  0  0  0  0
    0.0040    2.9540   98.3890 P   0  0  0  0  0
    1.4140    2.9800   98.9200 O   0  0  0  0  0
   -0.0330    2.3150   97.0200 O   0  0  0  0  0
   -0.5050    4.4400   98.2780 O   0  0  0  0  0
   -1.5260    4.7560   97.3600 C   0  0  0  0  0
   -1.7590    6.2440   97.3970 C   0  0  0  0  0
   -2.2770    6.7010   98.8600 O   0  0  0  0  0
   -0.6530    6.8970   97.2470 C   0  0  0  0  0
   -0.2710    7.0250   95.8140 O   0  0  0  0  0
   -1.0450    8.2670   97.8110 C   0  0  0  0  0
   -1.9520    8.8680   97.0060 O   0  0  0  0  0
   -1.7370    7.8660   99.1060 C   0  0  0  0  0
   -0.7430    7.7420  100.1420 N   0  0  0  0  0
   -0.2000    6.4980  100.7340 C   0  0  0  0  0
    0.7810    6.9140  101.7610 N   0  0  0  0  0
    1.5410    6.0290  102.5740 C   0  0  0  0  0
    0.7900    8.3290  101.7570 C   0  0  0  0  0
    1.5630    9.3220  102.5730 C   0  0  0  0  0
    2.3570    8.9670  103.4210 O   0  0  0  0  0
    1.3610   10.6970  102.3530 N   0  0  0  0  0
    0.4310   11.1600  101.3690 C   0  0  0  0  0
    0.2460   12.5480  101.1730 N   0  0  0  0  0
   -0.3160   10.2110  100.5820 N   0  0  0  0  0
   -0.1180    8.8090  100.7960 C   0  0  0  0  0
   -1.0413   -1.3374  101.6948 H   0  0  0  0  0
   -0.3042    0.3979  103.2921 H   0  0  0  0  0
    0.5692    0.5745  100.9742 H   0  0  0  0  0
   -0.9368    2.3063   96.6965 H   0  0  0  0  0
   -2.4422    4.2293   97.6269 H   0  0  0  0  0
   -1.2311    4.4506   96.3561 H   0  0  0  0  0
   -2.4762    6.4522   96.6030 H   0  0  0  0  0
    0.2027    6.4214   97.7263 H   0  0  0  0  0
    0.5522    7.5141   95.7459 H   0  0  0  0  0
   -0.2067    8.9552   97.9190 H   0  0  0  0  0
   -2.1866    9.7236   97.3729 H   0  0  0  0  0
   -2.4815    8.5924   99.4318 H   0  0  0  0  0
    0.2721    5.8774   99.9724 H   0  0  0  0  0
   -0.9950    5.8966  101.1749 H   0  0  0  0  0
    0.8657    5.4102  103.1648 H   0  0  0  0  0
    2.1569    5.3925  101.9386 H   0  0  0  0  0
    2.1810    6.6083  103.2396 H   0  0  0  0  0
    0.7749   13.2170  101.7325 H   0  0  0  0  0
   -0.9799   10.5353   99.8788 H   0  0  0  0  0
  1  2  2  0  0  0
  1  3  1  0  0  0
  1  4  1  0  0  0
  1  5  1  0  0  0
  5  6  1  0  0  0
  6  7  2  0  0  0
  6  8  1  0  0  0
  6  9  1  0  0  0
  9 10  1  0  0  0
 10 11  2  0  0  0
 10 12  1  0  0  0
 10 13  1  0  0  0
 13 14  1  0  0  0
 14 15  1  0  0  0
 15 16  1  0  0  0
 15 17  1  0  0  0
 16 21  1  0  0  0
 17 18  1  0  0  0
 17 19  1  0  0  0
 19 20  1  0  0  0
 19 21  1  0  0  0
 21 22  1  0  0  0
 22 23  1  0  0  0
 22 33  1  0  0  0
 23 24  1  0  0  0
 24 25  1  0  0  0
 24 26  1  0  0  0
 26 27  1  0  0  0
 26 33  2  0  0  0
 27 28  2  0  0  0
 27 29  1  0  0  0
 29 30  4  0  0  0
 30 31  2  0  0  0
 30 32  1  0  0  0
 32 33  1  0  0  0
  3 34  1  0  0  0
  4 35  1  0  0  0
  8 36  1  0  0  0
 12 37  1  0  0  0
 14 38  1  0  0  0
 14 39  1  0  0  0
 15 40  1  0  0  0
 17 41  1  0  0  0
 18 42  1  0  0  0
 19 43  1  0  0  0
 20 44  1  0  0  0
 21 45  1  0  0  0
 23 46  1  0  0  0
 23 47  1  0  0  0
 25 48  1  0  0  0
 25 49  1  0  0  0
 25 50  1  0  0  0
 31 51  1  0  0  0
 32 52  1  0  0  0
M  END
$$$$
