6qk8_ligand
  -I-interpret- 

149150  0  0  0  0  0  0  0  0999 V2000
   -4.6750   14.6480    9.0110 N   0  3  0  0  0
   -4.4250   13.5750    8.0470 C   0  0  0  0  0
   -3.8710   12.3120    8.7160 C   0  0  0  0  0
   -2.9160   12.3700    9.4980 O   0  0  0  0  0
   -3.4590   14.0490    6.9560 C   0  0  0  0  0
   -3.0960   12.9850    5.9240 C   0  0  0  0  0
   -2.6790   13.6150    4.5950 C   0  0  0  0  0
   -1.9950   12.6720    3.7100 N   0  0  0  0  0
   -1.2360   13.0310    2.6750 C   0  0  0  0  0
   -1.0530   14.3170    2.3890 N   0  0  0  0  0
   -0.6510   12.1030    1.9250 N   0  0  0  0  0
   -4.4730   11.1710    8.3890 N   0  0  0  0  0
   -4.0660    9.9080    8.9780 C   0  0  0  0  0
   -2.6790    9.5010    8.4850 C   0  0  0  0  0
   -2.1510   10.0290    7.5010 O   0  0  0  0  0
   -5.0790    8.8170    8.6470 C   0  0  0  0  0
   -6.3900    9.3470    8.6380 O   0  0  0  0  0
   -2.0990    8.5320    9.1840 N   0  0  0  0  0
   -0.7550    8.0580    8.8910 C   0  0  0  0  0
   -0.7730    6.5920    8.4560 C   0  0  0  0  0
   -1.3050    5.7230    9.1550 O   0  0  0  0  0
    0.1500    8.2560   10.1130 C   0  0  0  0  0
    0.2330    9.6900   10.5800 C   0  0  0  0  0
    0.6780   10.6920    9.7220 C   0  0  0  0  0
   -0.1330   10.0400   11.8730 C   0  0  0  0  0
    0.7570   12.0120   10.1460 C   0  0  0  0  0
   -0.0550   11.3620   12.3020 C   0  0  0  0  0
    0.3910   12.3450   11.4350 C   0  0  0  0  0
   -0.1980    6.3300    7.2870 N   0  0  0  0  0
   -0.1610    4.9820    6.7350 C   0  0  0  0  0
   -0.4530    5.0040    5.2270 C   0  0  0  0  0
    0.3580    5.9520    4.5460 O   0  0  0  0  0
    1.1960    4.3370    7.0190 C   0  0  0  0  0
    2.1000    4.9910    7.5500 O   0  0  0  0  0
    0.3400    5.7360    2.9470 P   0  0  0  0  0
   -0.5380    6.8690    2.2100 O   0  0  0  0  0
   -0.3030    4.3020    2.6040 O   0  0  0  0  0
    1.8630    5.7920    2.4290 O   0  0  0  0  0
    1.3180    3.0540    6.6780 N   0  0  0  0  0
    2.5600    2.3000    6.8570 C   0  0  0  0  0
    3.7550    2.9520    6.1620 C   0  0  0  0  0
    3.7260    3.1900    4.9550 O   0  0  0  0  0
    2.3990    0.8770    6.3240 C   0  0  0  0  0
    2.2490   -0.2720    7.3150 C   0  0  0  0  0
    2.6770   -1.5830    6.6720 C   0  0  0  0  0
    3.0520   -0.0080    8.5710 C   0  0  0  0  0
    4.8060    3.2350    6.9160 N   0  0  0  0  0
    6.0320    3.7620    6.3460 C   0  0  0  0  0
    7.0350    2.6250    6.1530 C   0  0  0  0  0
    6.7110    1.4440    6.3140 O   0  0  0  0  0
    6.5830    4.8760    7.2300 C   0  0  0  0  0
    6.8060    4.4580    8.6470 C   0  0  0  0  0
    6.0630    4.9570    9.6950 N   0  0  0  0  0
    7.6820    3.5810    9.1900 C   0  0  0  0  0
    6.4760    4.4080   10.8240 C   0  0  0  0  0
    7.4580    3.5700   10.5450 N   0  0  0  0  0
    8.2690    2.9820    5.8070 N   0  0  0  0  0
    9.2760    1.9820    5.4810 C   0  0  0  0  0
    9.6550    1.1700    6.7130 C   0  0  0  0  0
    9.7930    1.7070    7.8150 O   0  0  0  0  0
   10.5180    2.6520    4.8870 C   0  0  0  0  0
   11.7180    1.7220    4.6940 C   0  0  0  0  0
   13.0450    2.4500    4.9230 C   0  0  0  0  0
   13.6000    2.9920    3.6840 N   0  0  0  0  0
   14.5280    2.3850    2.9490 C   0  0  0  0  0
   15.0130    1.2060    3.3280 N   0  0  0  0  0
   14.9720    2.9560    1.8330 N   0  0  0  0  0
    9.8170   -0.1350    6.5170 N   0  0  0  0  0
   10.2280   -1.0280    7.5930 C   0  0  0  0  0
   11.6870   -1.4470    7.4210 C   0  0  0  0  0
   12.3860   -0.9600    6.5290 O   0  0  0  0  0
    9.3230   -2.2610    7.6450 C   0  0  0  0  0
    7.8870   -1.9590    8.0770 C   0  0  0  0  0
    7.7680   -1.2890    9.7580 S   0  0  0  0  0
    6.7700    0.1760    9.4970 C   0  0  0  0  0
   12.2000   -2.2820    8.1700 O   0  0  0  0  0
   -5.3189   14.3154    9.7287 H   0  0  0  0  0
   -3.7946   14.9257    9.4447 H   0  0  0  0  0
   -5.0851   15.4479    8.5289 H   0  0  0  0  0
   -5.3853   13.3196    7.5991 H   0  0  0  0  0
   -2.5336   14.3385    7.4539 H   0  0  0  0  0
   -3.9565   14.8567    6.4191 H   0  0  0  0  0
   -3.9711   12.3588    5.7504 H   0  0  0  0  0
   -2.2589   12.4020    6.3081 H   0  0  0  0  0
   -1.9876   14.4287    4.8139 H   0  0  0  0  0
   -3.5827   13.9531    4.0879 H   0  0  0  0  0
   -2.1062   11.6755    3.8972 H   0  0  0  0  0
   -0.4669   14.5853    1.5985 H   0  0  0  0  0
   -1.4988   15.0349    2.9602 H   0  0  0  0  0
   -0.7827   11.1149    2.1412 H   0  0  0  0  0
   -5.2352   11.1841    7.7113 H   0  0  0  0  0
   -4.0244   10.0360   10.0597 H   0  0  0  0  0
   -5.0178    8.0347    9.4035 H   0  0  0  0  0
   -4.8537    8.4110    7.6608 H   0  0  0  0  0
   -7.0147    8.6489    8.4284 H   0  0  0  0  0
   -2.6142    8.1049    9.9537 H   0  0  0  0  0
   -0.3543    8.6424    8.0628 H   0  0  0  0  0
    1.1556    7.9471    9.8277 H   0  0  0  0  0
   -0.2722    7.6708   10.9299 H   0  0  0  0  0
    0.9685   10.4368    8.7029 H   0  0  0  0  0
   -0.4855    9.2706   12.5600 H   0  0  0  0  0
    1.1077   12.7846    9.4617 H   0  0  0  0  0
   -0.3449   11.6231   13.3198 H   0  0  0  0  0
    0.4531   13.3805   11.7696 H   0  0  0  0  0
    0.2290    7.0931    6.7619 H   0  0  0  0  0
   -0.9359    4.3851    7.2160 H   0  0  0  0  0
   -1.4974    5.2814    5.0843 H   0  0  0  0  0
   -0.2377    4.0152    4.8219 H   0  0  0  0  0
   -0.1692    7.7340    2.4031 H   0  0  0  0  0
    2.2393    6.6503    2.6373 H   0  0  0  0  0
    0.5113    2.5772    6.2751 H   0  0  0  0  0
    2.7590    2.2880    7.9286 H   0  0  0  0  0
    3.3280    0.6697    5.7928 H   0  0  0  0  0
    1.4624    0.8906    5.7665 H   0  0  0  0  0
    1.1985   -0.3486    7.5954 H   0  0  0  0  0
    2.0523   -1.7798    5.8007 H   0  0  0  0  0
    3.7202   -1.5116    6.3641 H   0  0  0  0  0
    2.5640   -2.3933    7.3922 H   0  0  0  0  0
    4.1054    0.0976    8.3117 H   0  0  0  0  0
    2.6983    0.9099    9.0406 H   0  0  0  0  0
    2.9283   -0.8420    9.2618 H   0  0  0  0  0
    4.7525    3.0787    7.9225 H   0  0  0  0  0
    5.8323    4.1978    5.3671 H   0  0  0  0  0
    5.8484    5.6813    7.2379 H   0  0  0  0  0
    7.5487    5.1719    6.8201 H   0  0  0  0  0
    8.4262    2.9933    8.6525 H   0  0  0  0  0
    6.0745    4.6121   11.8166 H   0  0  0  0  0
    8.5135    3.9716    5.7695 H   0  0  0  0  0
    8.8529    1.3029    4.7407 H   0  0  0  0  0
   10.8270    3.4258    5.5897 H   0  0  0  0  0
   10.2386    3.0175    3.8989 H   0  0  0  0  0
   11.7030    1.3520    3.6688 H   0  0  0  0  0
   11.6428    0.9112    5.4187 H   0  0  0  0  0
   13.7589    1.7332    5.3287 H   0  0  0  0  0
   12.8622    3.2811    5.6042 H   0  0  0  0  0
   13.2528    3.8953    3.3617 H   0  0  0  0  0
   15.7240    0.7416    2.7631 H   0  0  0  0  0
   14.6739    0.7662    4.1836 H   0  0  0  0  0
   14.6010    3.8599    1.5401 H   0  0  0  0  0
    9.6491   -0.5218    5.5882 H   0  0  0  0  0
   10.1338   -0.4888    8.5356 H   0  0  0  0  0
   11.8661   -0.3301    6.0246 H   0  0  0  0  0
    9.7465   -2.9428    8.3825 H   0  0  0  0  0
    9.2781   -2.6726    6.6367 H   0  0  0  0  0
    7.3331   -2.8976    8.0569 H   0  0  0  0  0
    7.4892   -1.2079    7.3945 H   0  0  0  0  0
    7.2814    0.8437    8.8036 H   0  0  0  0  0
    5.8051   -0.1128    9.0803 H   0  0  0  0  0
    6.6185    0.6852   10.4488 H   0  0  0  0  0
  1  2  1  0  0  0
  2  3  1  0  0  0
  2  5  1  0  0  0
  3  4  2  0  0  0
  3 12  1  0  0  0
  5  6  1  0  0  0
  6  7  1  0  0  0
  7  8  1  0  0  0
  8  9  1  0  0  0
  9 10  1  0  0  0
  9 11  2  0  0  0
 12 13  1  0  0  0
 13 14  1  0  0  0
 13 16  1  0  0  0
 14 15  2  0  0  0
 14 18  1  0  0  0
 16 17  1  0  0  0
 18 19  1  0  0  0
 19 20  1  0  0  0
 19 22  1  0  0  0
 20 21  2  0  0  0
 20 29  1  0  0  0
 22 23  1  0  0  0
 23 24  4  0  0  0
 23 25  4  0  0  0
 24 26  4  0  0  0
 25 27  4  0  0  0
 26 28  4  0  0  0
 27 28  4  0  0  0
 29 30  1  0  0  0
 30 31  1  0  0  0
 30 33  1  0  0  0
 31 32  1  0  0  0
 32 35  1  0  0  0
 33 34  2  0  0  0
 33 39  1  0  0  0
 35 36  1  0  0  0
 35 37  2  0  0  0
 35 38  1  0  0  0
 39 40  1  0  0  0
 40 41  1  0  0  0
 40 43  1  0  0  0
 41 42  2  0  0  0
 41 47  1  0  0  0
 43 44  1  0  0  0
 44 45  1  0  0  0
 44 46  1  0  0  0
 47 48  1  0  0  0
 48 49  1  0  0  0
 48 51  1  0  0  0
 49 50  2  0  0  0
 49 57  1  0  0  0
 51 52  1  0  0  0
 52 53  4  0  0  0
 52 54  4  0  0  0
 53 55  4  0  0  0
 54 56  4  0  0  0
 55 56  4  0  0  0
 57 58  1  0  0  0
 58 59  1  0  0  0
 58 61  1  0  0  0
 59 60  2  0  0  0
 59 68  1  0  0  0
 61 62  1  0  0  0
 62 63  1  0  0  0
 63 64  1  0  0  0
 64 65  1  0  0  0
 65 66  1  0  0  0
 65 67  2  0  0  0
 68 69  1  0  0  0
 69 70  1  0  0  0
 69 72  1  0  0  0
 70 71  1  0  0  0
 70 76  2  0  0  0
 72 73  1  0  0  0
 73 74  1  0  0  0
 74 75  1  0  0  0
  1 77  1  0  0  0
  1 78  1  0  0  0
  1 79  1  0  0  0
  2 80  1  0  0  0
  5 81  1  0  0  0
  5 82  1  0  0  0
  6 83  1  0  0  0
  6 84  1  0  0  0
  7 85  1  0  0  0
  7 86  1  0  0  0
  8 87  1  0  0  0
 10 88  1  0  0  0
 10 89  1  0  0  0
 11 90  1  0  0  0
 12 91  1  0  0  0
 13 92  1  0  0  0
 16 93  1  0  0  0
 16 94  1  0  0  0
 17 95  1  0  0  0
 18 96  1  0  0  0
 19 97  1  0  0  0
 22 98  1  0  0  0
 22 99  1  0  0  0
 24100  1  0  0  0
 25101  1  0  0  0
 26102  1  0  0  0
 27103  1  0  0  0
 28104  1  0  0  0
 29105  1  0  0  0
 30106  1  0  0  0
 31107  1  0  0  0
 31108  1  0  0  0
 36109  1  0  0  0
 38110  1  0  0  0
 39111  1  0  0  0
 40112  1  0  0  0
 43113  1  0  0  0
 43114  1  0  0  0
 44115  1  0  0  0
 45116  1  0  0  0
 45117  1  0  0  0
 45118  1  0  0  0
 46119  1  0  0  0
 46120  1  0  0  0
 46121  1  0  0  0
 47122  1  0  0  0
 48123  1  0  0  0
 51124  1  0  0  0
 51125  1  0  0  0
 54126  1  0  0  0
 55127  1  0  0  0
 57128  1  0  0  0
 58129  1  0  0  0
 61130  1  0  0  0
 61131  1  0  0  0
 62132  1  0  0  0
 62133  1  0  0  0
 63134  1  0  0  0
 63135  1  0  0  0
 64136  1  0  0  0
 66137  1  0  0  0
 66138  1  0  0  0
 67139  1  0  0  0
 68140  1  0  0  0
 69141  1  0  0  0
 71142  1  0  0  0
 72143  1  0  0  0
 72144  1  0  0  0
 73145  1  0  0  0
 73146  1  0  0  0
 75147  1  0  0  0
 75148  1  0  0  0
 75149  1  0  0  0
M  END
$$$$
