6qzr_ligand
  -I-interpret- 

148151  0  0  0  0  0  0  0  0999 V2000
   46.9010  -10.3020   48.7040 N   0  3  0  0  0
   46.8850   -8.8190   48.8920 C   0  0  0  0  0
   45.5430   -8.2290   48.4230 C   0  0  0  0  0
   45.5580   -7.3210   47.6260 O   0  0  0  0  0
   48.0620   -8.1940   48.1230 C   0  0  0  0  0
   47.9720   -8.3140   46.6050 C   0  0  0  0  0
   49.3130   -8.4120   45.8950 C   0  0  0  0  0
   50.0190   -9.6500   46.2080 N   0  0  0  0  0
   49.6540  -10.8630   45.7990 C   0  0  0  0  0
   50.3320  -11.9260   46.1960 N   0  0  0  0  0
   48.6100  -11.0150   45.0050 N   0  0  0  0  0
   44.4000   -8.7490   48.9040 N   0  0  0  0  0
   43.0570   -8.2250   48.5220 C   0  0  0  0  0
   42.9220   -6.7760   49.0090 C   0  0  0  0  0
   43.3740   -6.4560   50.1080 O   0  0  0  0  0
   41.9350   -9.0750   49.0630 C   0  0  0  0  0
   42.4160  -10.3070   49.6120 O   0  0  0  0  0
   42.2940   -5.9120   48.2070 N   0  0  0  0  0
   42.2230   -4.4690   48.4910 C   0  0  0  0  0
   41.0810   -4.1460   49.4370 C   0  0  0  0  0
   40.0410   -4.7700   49.3640 O   0  0  0  0  0
   41.9930   -3.6620   47.2230 C   0  0  0  0  0
   43.4860   -3.5260   46.2090 S   0  0  0  0  0
   41.2770   -3.1390   50.2930 N   0  0  0  0  0
   40.2630   -2.6940   51.2420 C   0  0  0  0  0
   40.6740   -3.0140   52.7030 C   0  0  0  0  0
   40.5260   -4.5070   52.8580 C   0  0  0  0  0
   42.0080   -2.5000   52.9280 O   0  0  0  0  0
   42.5560   -2.6090   54.4360 P   0  0  0  0  0
   43.7440   -1.6940   54.4560 O   0  0  0  0  0
   42.9800   -4.0280   54.7730 O   0  0  0  0  0
   41.4400   -2.1970   55.3820 O   0  0  0  0  0
   40.0050   -1.1930   51.1030 C   0  0  0  0  0
   40.7810   -0.4910   50.4780 O   0  0  0  0  0
   38.8820   -0.7120   51.6510 N   0  0  0  0  0
   38.5250    0.6900   51.4900 C   0  0  0  0  0
   38.2580    1.3080   52.8520 C   0  0  0  0  0
   37.4660    0.7590   53.6090 O   0  0  0  0  0
   37.2930    0.8320   50.5890 C   0  0  0  0  0
   37.2270    2.1490   49.8840 C   0  0  0  0  0
   37.9830    2.5660   48.8230 C   0  0  0  0  0
   36.3540    3.2390   50.2030 C   0  0  0  0  0
   37.6410    3.8430   48.4590 N   0  0  0  0  0
   36.6460    4.2800   49.2920 C   0  0  0  0  0
   35.3760    3.4310   51.1770 C   0  0  0  0  0
   35.9700    5.4930   49.3130 C   0  0  0  0  0
   34.7150    4.6390   51.2120 C   0  0  0  0  0
   35.0060    5.6490   50.2860 C   0  0  0  0  0
   38.8390    2.4740   53.1330 N   0  0  0  0  0
   39.5230    3.3210   52.1720 C   0  0  0  0  0
   40.9540    2.8090   51.9710 C   0  0  0  0  0
   41.4570    2.0500   52.8150 O   0  0  0  0  0
   39.4950    4.7510   52.7570 C   0  0  0  0  0
   39.1850    4.5630   54.2280 C   0  0  0  0  0
   38.4370    3.2430   54.3200 C   0  0  0  0  0
   41.5570    3.2040   50.8400 N   0  0  0  0  0
   42.9510    2.8650   50.4840 C   0  0  0  0  0
   43.8710    3.8130   51.2500 C   0  0  0  0  0
   43.3950    4.7550   51.8770 O   0  0  0  0  0
   43.1360    2.9910   48.9670 C   0  0  0  0  0
   42.0210    2.3890   48.1010 C   0  0  0  0  0
   42.0450    2.9490   46.6810 C   0  0  0  0  0
   42.1060    0.8700   48.0650 C   0  0  0  0  0
   45.1950    3.5620   51.2920 N   0  0  0  0  0
   46.1560    4.5230   51.8480 C   0  0  0  0  0
   46.6680    5.5510   50.8110 C   0  0  0  0  0
   46.0550    5.7090   49.7530 O   0  0  0  0  0
   47.2890    3.6160   52.3860 C   0  0  0  0  0
   47.0390    2.2140   51.8100 C   0  0  0  0  0
   45.8410    2.3090   50.8830 C   0  0  0  0  0
   47.7620    6.2630   51.1450 N   0  0  0  0  0
   48.5000    7.2050   50.2490 C   0  0  0  0  0
   47.8270    8.5840   50.2810 C   0  0  0  0  0
   47.5390    9.1140   51.3530 O   0  0  0  0  0
   48.5840    6.6850   48.8080 C   0  0  0  0  0
   47.5670    9.1770   49.2350 O   0  0  0  0  0
   46.1208  -10.7166   49.2137 H   0  0  0  0  0
   46.8135  -10.5186   47.7111 H   0  0  0  0  0
   47.7796  -10.6791   49.0593 H   0  0  0  0  0
   46.9946   -8.5884   49.9517 H   0  0  0  0  0
   48.9601   -8.7302   48.4296 H   0  0  0  0  0
   48.0621   -7.1293   48.3563 H   0  0  0  0  0
   47.4869   -7.4074   46.2432 H   0  0  0  0  0
   47.4315   -9.2361   46.3910 H   0  0  0  0  0
   49.9317   -7.5780   46.2262 H   0  0  0  0  0
   49.1282   -8.3915   44.8210 H   0  0  0  0  0
   50.8573   -9.5805   46.7850 H   0  0  0  0  0
   50.0477  -12.8562   45.8890 H   0  0  0  0  0
   51.1395  -11.8161   46.8094 H   0  0  0  0  0
   48.0774  -10.1999   44.7011 H   0  0  0  0  0
   44.4536   -9.5321   49.5553 H   0  0  0  0  0
   42.9771   -8.2590   47.4355 H   0  0  0  0  0
   41.2564   -9.3081   48.2425 H   0  0  0  0  0
   41.4365   -8.5185   49.8567 H   0  0  0  0  0
   41.6750  -10.8186   49.9449 H   0  0  0  0  0
   41.8449   -6.2666   47.3626 H   0  0  0  0  0
   43.1794   -4.2046   48.9421 H   0  0  0  0  0
   41.6911   -2.6560   47.5143 H   0  0  0  0  0
   41.2308   -4.1714   46.6333 H   0  0  0  0  0
   43.2169   -2.8113   45.1201 H   0  0  0  0  0
   42.1772   -2.6595   50.2822 H   0  0  0  0  0
   39.3472   -3.2378   51.0103 H   0  0  0  0  0
   40.0535   -2.5382   53.4624 H   0  0  0  0  0
   39.4906   -4.7898   52.6683 H   0  0  0  0  0
   41.1782   -5.0114   52.1450 H   0  0  0  0  0
   40.8027   -4.7949   53.8722 H   0  0  0  0  0
   42.2113   -4.6028   54.7568 H   0  0  0  0  0
   40.7173   -2.8254   55.3154 H   0  0  0  0  0
   38.2727   -1.3320   52.1847 H   0  0  0  0  0
   39.3549    1.2142   51.0161 H   0  0  0  0  0
   36.4096    0.7520   51.2225 H   0  0  0  0  0
   37.3484    0.0529   49.8287 H   0  0  0  0  0
   38.7510    1.9662   48.3345 H   0  0  0  0  0
   35.1398    2.6444   51.8937 H   0  0  0  0  0
   36.1909    6.2830   48.5952 H   0  0  0  0  0
   33.9534    4.8118   51.9724 H   0  0  0  0  0
   34.4532    6.5871   50.3364 H   0  0  0  0  0
   39.0445    3.3122   51.1927 H   0  0  0  0  0
   38.7515    5.3765   52.2629 H   0  0  0  0  0
   40.4417    5.2695   52.6054 H   0  0  0  0  0
   38.5892    5.3877   54.6192 H   0  0  0  0  0
   40.0941    4.5496   54.8292 H   0  0  0  0  0
   38.6811    2.7111   55.2396 H   0  0  0  0  0
   37.3585    3.3984   54.3464 H   0  0  0  0  0
   41.0207    3.7733   50.1853 H   0  0  0  0  0
   43.1934    1.8377   50.7560 H   0  0  0  0  0
   44.0444    2.4404   48.7226 H   0  0  0  0  0
   43.1509    4.0587   48.7481 H   0  0  0  0  0
   41.0752    2.6724   48.5627 H   0  0  0  0  0
   41.9079    4.0298   46.7157 H   0  0  0  0  0
   43.0037    2.7178   46.2168 H   0  0  0  0  0
   41.2405    2.4978   46.1002 H   0  0  0  0  0
   43.0681    0.5710   47.6489 H   0  0  0  0  0
   42.0089    0.4778   49.0774 H   0  0  0  0  0
   41.3017    0.4770   47.4430 H   0  0  0  0  0
   45.7087    5.1540   52.6160 H   0  0  0  0  0
   47.2871    3.5954   53.4758 H   0  0  0  0  0
   48.2662    3.9927   52.0838 H   0  0  0  0  0
   46.8452    1.5014   52.6117 H   0  0  0  0  0
   47.9157    1.8636   51.2653 H   0  0  0  0  0
   46.1241    2.3073   49.8304 H   0  0  0  0  0
   45.1772    1.4484   50.9661 H   0  0  0  0  0
   48.1185    6.1491   52.0939 H   0  0  0  0  0
   49.5215    7.2872   50.6204 H   0  0  0  0  0
   49.1053    5.7278   48.7983 H   0  0  0  0  0
   47.5773    6.5559   48.4104 H   0  0  0  0  0
   49.1288    7.4031   48.1951 H   0  0  0  0  0
   47.8477    8.6436   48.4878 H   0  0  0  0  0
  1  2  1  0  0  0
  2  3  1  0  0  0
  2  5  1  0  0  0
  3  4  2  0  0  0
  3 12  1  0  0  0
  5  6  1  0  0  0
  6  7  1  0  0  0
  7  8  1  0  0  0
  8  9  1  0  0  0
  9 10  1  0  0  0
  9 11  2  0  0  0
 12 13  1  0  0  0
 13 14  1  0  0  0
 13 16  1  0  0  0
 14 15  2  0  0  0
 14 18  1  0  0  0
 16 17  1  0  0  0
 18 19  1  0  0  0
 19 20  1  0  0  0
 19 22  1  0  0  0
 20 21  2  0  0  0
 20 24  1  0  0  0
 22 23  1  0  0  0
 24 25  1  0  0  0
 25 26  1  0  0  0
 25 33  1  0  0  0
 26 27  1  0  0  0
 26 28  1  0  0  0
 28 29  1  0  0  0
 29 30  2  0  0  0
 29 31  1  0  0  0
 29 32  1  0  0  0
 33 34  2  0  0  0
 33 35  1  0  0  0
 35 36  1  0  0  0
 36 37  1  0  0  0
 36 39  1  0  0  0
 37 38  2  0  0  0
 37 49  1  0  0  0
 39 40  1  0  0  0
 40 41  4  0  0  0
 40 42  4  0  0  0
 41 43  4  0  0  0
 42 44  4  0  0  0
 42 45  4  0  0  0
 43 44  4  0  0  0
 44 46  4  0  0  0
 45 47  4  0  0  0
 46 48  4  0  0  0
 47 48  4  0  0  0
 49 50  1  0  0  0
 49 55  1  0  0  0
 50 51  1  0  0  0
 50 53  1  0  0  0
 51 52  2  0  0  0
 51 56  1  0  0  0
 53 54  1  0  0  0
 54 55  1  0  0  0
 56 57  1  0  0  0
 57 58  1  0  0  0
 57 60  1  0  0  0
 58 59  2  0  0  0
 58 64  1  0  0  0
 60 61  1  0  0  0
 61 62  1  0  0  0
 61 63  1  0  0  0
 64 65  1  0  0  0
 64 70  1  0  0  0
 65 66  1  0  0  0
 65 68  1  0  0  0
 66 67  2  0  0  0
 66 71  1  0  0  0
 68 69  1  0  0  0
 69 70  1  0  0  0
 71 72  1  0  0  0
 72 73  1  0  0  0
 72 75  1  0  0  0
 73 74  2  0  0  0
 73 76  1  0  0  0
  1 77  1  0  0  0
  1 78  1  0  0  0
  1 79  1  0  0  0
  2 80  1  0  0  0
  5 81  1  0  0  0
  5 82  1  0  0  0
  6 83  1  0  0  0
  6 84  1  0  0  0
  7 85  1  0  0  0
  7 86  1  0  0  0
  8 87  1  0  0  0
 10 88  1  0  0  0
 10 89  1  0  0  0
 11 90  1  0  0  0
 12 91  1  0  0  0
 13 92  1  0  0  0
 16 93  1  0  0  0
 16 94  1  0  0  0
 17 95  1  0  0  0
 18 96  1  0  0  0
 19 97  1  0  0  0
 22 98  1  0  0  0
 22 99  1  0  0  0
 23100  1  0  0  0
 24101  1  0  0  0
 25102  1  0  0  0
 26103  1  0  0  0
 27104  1  0  0  0
 27105  1  0  0  0
 27106  1  0  0  0
 31107  1  0  0  0
 32108  1  0  0  0
 35109  1  0  0  0
 36110  1  0  0  0
 39111  1  0  0  0
 39112  1  0  0  0
 41113  1  0  0  0
 45114  1  0  0  0
 46115  1  0  0  0
 47116  1  0  0  0
 48117  1  0  0  0
 50118  1  0  0  0
 53119  1  0  0  0
 53120  1  0  0  0
 54121  1  0  0  0
 54122  1  0  0  0
 55123  1  0  0  0
 55124  1  0  0  0
 56125  1  0  0  0
 57126  1  0  0  0
 60127  1  0  0  0
 60128  1  0  0  0
 61129  1  0  0  0
 62130  1  0  0  0
 62131  1  0  0  0
 62132  1  0  0  0
 63133  1  0  0  0
 63134  1  0  0  0
 63135  1  0  0  0
 65136  1  0  0  0
 68137  1  0  0  0
 68138  1  0  0  0
 69139  1  0  0  0
 69140  1  0  0  0
 70141  1  0  0  0
 70142  1  0  0  0
 71143  1  0  0  0
 72144  1  0  0  0
 75145  1  0  0  0
 75146  1  0  0  0
 75147  1  0  0  0
 76148  1  0  0  0
M  END
$$$$
